
  Chem3D Core 14.008171522133D

 51 53  0  0  0  0  0  0  0  0999 V2000
    2.8541    1.5469   -1.4951 O   0  0  0  0  0  0  0  0  0  0  0  0
    2.1526    0.7707   -2.0875 C   0  0  0  0  0  0  0  0  0  0  0  0
    1.3172    1.2010   -3.0694 N   0  0  0  0  0  0  0  0  0  0  0  0
    2.1274   -0.7326   -1.8160 C   0  0  0  0  0  0  0  0  0  0  0  0
    1.7770   -1.2208   -2.7618 H   0  0  0  0  0  0  0  0  0  0  0  0
    1.1705   -1.0979   -0.7610 N   0  0  0  0  0  0  0  0  0  0  0  0
    1.6141   -0.8521    0.8611 S   0  0  0  0  0  0  0  0  0  0  0  0
    0.5145   -0.6923    1.8246 O   0  0  0  0  0  0  0  0  0  0  0  0
    2.2408    0.7974    1.2398 C   0  0  0  0  0  0  0  0  0  0  0  0
    1.4110    1.8561    1.1640 C   0  0  0  0  0  0  0  0  0  0  0  0
    1.8463    3.1056    1.3893 C   0  0  0  0  0  0  0  0  0  0  0  0
    3.1331    3.3198    1.7011 C   0  0  0  0  0  0  0  0  0  0  0  0
    3.7011    4.9242    1.9909 Cl  0  0  0  0  0  0  0  0  0  0  0  0
    3.9746    2.2785    1.7844 C   0  0  0  0  0  0  0  0  0  0  0  0
    3.5298    1.0329    1.5524 C   0  0  0  0  0  0  0  0  0  0  0  0
    2.7747   -1.6203    1.3252 O   0  0  0  0  0  0  0  0  0  0  0  0
   -0.1816   -0.6499   -1.0958 C   0  0  0  0  0  0  0  0  0  0  0  0
   -1.2464   -1.3823   -0.2966 C   0  0  0  0  0  0  0  0  0  0  0  0
   -1.2438   -2.7245   -0.2256 C   0  0  0  0  0  0  0  0  0  0  0  0
   -2.1673   -3.3856    0.4887 C   0  0  0  0  0  0  0  0  0  0  0  0
   -3.1325   -2.7268    1.1566 C   0  0  0  0  0  0  0  0  0  0  0  0
   -4.0583   -3.3864    1.8775 C   0  0  0  0  0  0  0  0  0  0  0  0
   -4.1524   -4.6419    2.0248 N   0  0  0  0  0  0  0  0  0  0  0  0
   -5.1822   -4.9242    2.7977 O   0  0  0  0  0  0  0  0  0  0  0  0
   -5.6505   -3.8250    3.0740 C   0  0  0  0  0  0  0  0  0  0  0  0
   -5.0096   -2.8753    2.5427 N   0  0  0  0  0  0  0  0  0  0  0  0
   -3.1362   -1.3831    1.0730 C   0  0  0  0  0  0  0  0  0  0  0  0
   -2.2141   -0.7167    0.3597 C   0  0  0  0  0  0  0  0  0  0  0  0
   -2.2668    0.6053    0.3068 F   0  0  0  0  0  0  0  0  0  0  0  0
    3.5477   -1.3051   -1.6002 C   0  0  0  0  0  0  0  0  0  0  0  0
    4.4586   -1.1467   -2.8340 C   0  0  0  0  0  0  0  0  0  0  0  0
    5.8064   -1.7106   -2.6477 C   0  0  0  0  0  0  0  0  0  0  0  0
    5.7635   -2.9894   -2.4000 F   0  0  0  0  0  0  0  0  0  0  0  0
    6.5341   -1.5542   -3.7186 F   0  0  0  0  0  0  0  0  0  0  0  0
    6.4440   -1.1414   -1.6640 F   0  0  0  0  0  0  0  0  0  0  0  0
    0.7203    0.5583   -3.5705 H   0  0  0  0  0  0  0  0  0  0  0  0
    1.3071    2.1891   -3.2775 H   0  0  0  0  0  0  0  0  0  0  0  0
    0.3465    1.7239    0.9088 H   0  0  0  0  0  0  0  0  0  0  0  0
    1.1374    3.9475    1.3142 H   0  0  0  0  0  0  0  0  0  0  0  0
    5.0378    2.4354    2.0331 H   0  0  0  0  0  0  0  0  0  0  0  0
    4.2684    0.2177    1.6142 H   0  0  0  0  0  0  0  0  0  0  0  0
   -0.2678    0.4540   -0.9890 H   0  0  0  0  0  0  0  0  0  0  0  0
   -0.4217   -0.8818   -2.1616 H   0  0  0  0  0  0  0  0  0  0  0  0
   -0.4677   -3.2979   -0.7597 H   0  0  0  0  0  0  0  0  0  0  0  0
   -2.1063   -4.4869    0.5103 H   0  0  0  0  0  0  0  0  0  0  0  0
   -6.5341   -3.7840    3.7186 H   0  0  0  0  0  0  0  0  0  0  0  0
   -3.9035   -0.7852    1.5929 H   0  0  0  0  0  0  0  0  0  0  0  0
    4.0471   -0.7983   -0.7433 H   0  0  0  0  0  0  0  0  0  0  0  0
    3.4644   -2.3896   -1.3484 H   0  0  0  0  0  0  0  0  0  0  0  0
    3.9748   -1.6436   -3.7092 H   0  0  0  0  0  0  0  0  0  0  0  0
    4.5521   -0.0639   -3.0886 H   0  0  0  0  0  0  0  0  0  0  0  0
  1  2  2  0      
  2  3  1  0      
  2  4  1  0      
  3 36  1  0      
  3 37  1  0      
  4  5  1  0      
  4  6  1  0      
  4 30  1  0      
  6  7  1  0      
  6 17  1  0      
  7  8  2  0      
  7  9  1  0      
  7 16  2  0      
  9 10  1  0      
  9 15  2  0      
 10 11  2  0      
 10 38  1  0      
 11 12  1  0      
 11 39  1  0      
 12 13  1  0      
 12 14  2  0      
 14 15  1  0      
 14 40  1  0      
 15 41  1  0      
 17 18  1  0      
 17 42  1  0      
 17 43  1  0      
 18 19  1  0      
 18 28  2  0      
 19 20  2  0      
 19 44  1  0      
 20 21  1  0      
 20 45  1  0      
 21 22  1  0      
 21 27  2  0      
 22 23  2  0      
 26 22  1  0      
 23 24  1  0      
 25 24  1  0      
 25 26  2  0      
 25 46  1  0      
 27 28  1  0      
 27 47  1  0      
 28 29  1  0      
 30 31  1  0      
 30 48  1  0      
 30 49  1  0      
 31 32  1  0      
 31 50  1  0      
 31 51  1  0      
 32 33  1  0      
 32 34  1  0      
 32 35  1  0      
M  END
