
  Chem3D Core 15.008171513113D

 78 79  0  0  0  0  0  0  0  0999 V2000
    3.1671    0.7289    0.4404 S   0  0  0  0  0  0  0  0  0  0  0  0
    1.9800    0.5224   -0.7266 O   0  0  0  0  0  0  0  0  0  0  0  0
    4.0152   -0.4481    0.5790 O   0  0  0  0  0  0  0  0  0  0  0  0
    3.6610    2.0990    0.5159 O   0  0  0  0  0  0  0  0  0  0  0  0
    2.8815    0.6624    3.4726 O   0  0  0  0  0  0  0  0  0  0  0  0
    1.8185    0.5832    1.4797 N   0  0  0  0  0  0  0  0  0  0  0  0
   -0.3719   -0.5850    2.6233 C   0  0  0  0  0  0  0  0  0  0  0  0
    2.4071    0.3523   -2.0144 C   0  0  0  0  0  0  0  0  0  0  0  0
   -0.2614   -1.9318    2.7218 C   0  0  0  0  0  0  0  0  0  0  0  0
   -1.2424   -0.0470    1.7334 C   0  0  0  0  0  0  0  0  0  0  0  0
    2.5194   -0.8854   -2.5641 C   0  0  0  0  0  0  0  0  0  0  0  0
    2.6453    1.4397   -2.7930 C   0  0  0  0  0  0  0  0  0  0  0  0
   -1.9955   -2.2039    1.1481 C   0  0  0  0  0  0  0  0  0  0  0  0
    0.4979    0.3102    3.4952 C   0  0  0  0  0  0  0  0  0  0  0  0
   -1.0847   -2.7064    1.9932 C   0  0  0  0  0  0  0  0  0  0  0  0
   -2.0412   -0.8694    1.0302 C   0  0  0  0  0  0  0  0  0  0  0  0
    1.8548    0.5393    2.8520 C   0  0  0  0  0  0  0  0  0  0  0  0
    0.7428   -2.6269    3.6424 C   0  0  0  0  0  0  0  0  0  0  0  0
   -1.3792    1.4566    1.4837 C   0  0  0  0  0  0  0  0  0  0  0  0
    2.1662   -2.2152   -1.8849 C   0  0  0  0  0  0  0  0  0  0  0  0
    2.9511   -0.9992   -3.8356 C   0  0  0  0  0  0  0  0  0  0  0  0
    3.0722    1.2831   -4.0585 C   0  0  0  0  0  0  0  0  0  0  0  0
    2.4147    2.8720   -2.3085 C   0  0  0  0  0  0  0  0  0  0  0  0
   -2.9271   -3.1030    0.3500 C   0  0  0  0  0  0  0  0  0  0  0  0
    3.2462    0.0675   -4.5844 C   0  0  0  0  0  0  0  0  0  0  0  0
    0.0333   -3.1189    4.9143 C   0  0  0  0  0  0  0  0  0  0  0  0
    1.5178   -3.7745    2.9658 C   0  0  0  0  0  0  0  0  0  0  0  0
   -1.4321    1.8319   -0.0111 C   0  0  0  0  0  0  0  0  0  0  0  0
   -2.6001    2.0085    2.2359 C   0  0  0  0  0  0  0  0  0  0  0  0
    3.4264   -3.0400   -1.5672 C   0  0  0  0  0  0  0  0  0  0  0  0
    1.2083   -2.2106   -0.6826 C   0  0  0  0  0  0  0  0  0  0  0  0
    3.7014    3.7137   -2.3566 C   0  0  0  0  0  0  0  0  0  0  0  0
    1.2798    3.5425   -3.1045 C   0  0  0  0  0  0  0  0  0  0  0  0
   -2.1472   -3.9547   -0.6643 C   0  0  0  0  0  0  0  0  0  0  0  0
   -3.7861   -3.9826    1.2740 C   0  0  0  0  0  0  0  0  0  0  0  0
    0.9032    0.4710    1.0670 H   0  0  0  0  0  0  0  0  0  0  0  0
    0.0289    1.2929    3.7121 H   0  0  0  0  0  0  0  0  0  0  0  0
    0.6137   -0.1068    4.5192 H   0  0  0  0  0  0  0  0  0  0  0  0
   -1.0283   -3.7997    2.0915 H   0  0  0  0  0  0  0  0  0  0  0  0
   -2.7771   -0.4452    0.3314 H   0  0  0  0  0  0  0  0  0  0  0  0
    1.5484   -1.9179    3.9489 H   0  0  0  0  0  0  0  0  0  0  0  0
   -0.4747    1.9992    1.8478 H   0  0  0  0  0  0  0  0  0  0  0  0
    1.5937   -2.7964   -2.6576 H   0  0  0  0  0  0  0  0  0  0  0  0
    3.0569   -1.9920   -4.3048 H   0  0  0  0  0  0  0  0  0  0  0  0
    3.2742    2.1545   -4.7012 H   0  0  0  0  0  0  0  0  0  0  0  0
    2.0589    2.8877   -1.2513 H   0  0  0  0  0  0  0  0  0  0  0  0
   -3.6378   -2.4675   -0.2370 H   0  0  0  0  0  0  0  0  0  0  0  0
    3.5874   -0.0516   -5.6262 H   0  0  0  0  0  0  0  0  0  0  0  0
    0.7557   -3.5796    5.6262 H   0  0  0  0  0  0  0  0  0  0  0  0
   -0.4698   -2.2784    5.4449 H   0  0  0  0  0  0  0  0  0  0  0  0
   -0.7410   -3.8836    4.6787 H   0  0  0  0  0  0  0  0  0  0  0  0
    2.3210   -4.1592    3.6358 H   0  0  0  0  0  0  0  0  0  0  0  0
    2.0119   -3.4287    2.0295 H   0  0  0  0  0  0  0  0  0  0  0  0
    0.8781   -4.6489    2.7170 H   0  0  0  0  0  0  0  0  0  0  0  0
   -1.3487    2.9348   -0.1487 H   0  0  0  0  0  0  0  0  0  0  0  0
   -0.5903    1.3663   -0.5727 H   0  0  0  0  0  0  0  0  0  0  0  0
   -2.3827    1.5315   -0.5032 H   0  0  0  0  0  0  0  0  0  0  0  0
   -2.6884    3.1113    2.1055 H   0  0  0  0  0  0  0  0  0  0  0  0
   -2.5246    1.8043    3.3285 H   0  0  0  0  0  0  0  0  0  0  0  0
   -3.5455    1.5489    1.8689 H   0  0  0  0  0  0  0  0  0  0  0  0
    3.1618   -4.0283   -1.1266 H   0  0  0  0  0  0  0  0  0  0  0  0
    4.0370   -3.2442   -2.4753 H   0  0  0  0  0  0  0  0  0  0  0  0
    4.0851   -2.5185   -0.8415 H   0  0  0  0  0  0  0  0  0  0  0  0
    0.8635   -3.2434   -0.4463 H   0  0  0  0  0  0  0  0  0  0  0  0
    0.2966   -1.6028   -0.8830 H   0  0  0  0  0  0  0  0  0  0  0  0
    1.6938   -1.8490    0.2475 H   0  0  0  0  0  0  0  0  0  0  0  0
    3.5419    4.7122   -1.8887 H   0  0  0  0  0  0  0  0  0  0  0  0
    4.5298    3.2137   -1.8053 H   0  0  0  0  0  0  0  0  0  0  0  0
    4.0513    3.8956   -3.3966 H   0  0  0  0  0  0  0  0  0  0  0  0
    1.0535    4.5569   -2.7027 H   0  0  0  0  0  0  0  0  0  0  0  0
    0.3426    2.9423   -3.0417 H   0  0  0  0  0  0  0  0  0  0  0  0
    1.5327    3.6675   -4.1806 H   0  0  0  0  0  0  0  0  0  0  0  0
   -2.8366   -4.5834   -1.2730 H   0  0  0  0  0  0  0  0  0  0  0  0
   -1.5767   -3.3104   -1.3716 H   0  0  0  0  0  0  0  0  0  0  0  0
   -1.4262   -4.6404   -0.1654 H   0  0  0  0  0  0  0  0  0  0  0  0
   -4.5298   -4.5700    0.6881 H   0  0  0  0  0  0  0  0  0  0  0  0
   -4.3521   -3.3596    2.0042 H   0  0  0  0  0  0  0  0  0  0  0  0
   -3.1740   -4.7122    1.8495 H   0  0  0  0  0  0  0  0  0  0  0  0
  1  2  1  0      
  1  3  2  0      
  1  4  2  0      
  1  6  1  0      
  2  8  1  0      
  5 17  2  0      
  6 17  1  0      
  6 36  1  0      
  7  9  1  0      
  7 10  2  0      
  7 14  1  0      
  8 11  1  0      
  8 12  2  0      
  9 15  2  0      
  9 18  1  0      
 16 10  1  0      
 10 19  1  0      
 11 20  1  0      
 11 21  2  0      
 22 12  1  0      
 12 23  1  0      
 15 13  1  0      
 13 16  2  0      
 13 24  1  0      
 14 17  1  0      
 14 37  1  0      
 14 38  1  0      
 15 39  1  0      
 16 40  1  0      
 18 26  1  0      
 18 27  1  0      
 18 41  1  0      
 19 28  1  0      
 19 29  1  0      
 19 42  1  0      
 20 30  1  0      
 20 31  1  0      
 20 43  1  0      
 21 25  1  0      
 21 44  1  0      
 25 22  2  0      
 22 45  1  0      
 23 32  1  0      
 23 33  1  0      
 23 46  1  0      
 24 34  1  0      
 24 35  1  0      
 24 47  1  0      
 25 48  1  0      
 26 49  1  0      
 26 50  1  0      
 26 51  1  0      
 27 52  1  0      
 27 53  1  0      
 27 54  1  0      
 28 55  1  0      
 28 56  1  0      
 28 57  1  0      
 29 58  1  0      
 29 59  1  0      
 29 60  1  0      
 30 61  1  0      
 30 62  1  0      
 30 63  1  0      
 31 64  1  0      
 31 65  1  0      
 31 66  1  0      
 32 67  1  0      
 32 68  1  0      
 32 69  1  0      
 33 70  1  0      
 33 71  1  0      
 33 72  1  0      
 34 73  1  0      
 34 74  1  0      
 34 75  1  0      
 35 76  1  0      
 35 77  1  0      
 35 78  1  0      
M  END
