
  Chem3D Core 15.008161521593D

 57 60  0  0  0  0  0  0  0  0999 V2000
    5.1626   -1.0202    3.3625 C   0  0  0  0  0  0  0  0  0  0  0  0
    6.1989   -1.8723    3.3706 C   0  0  0  0  0  0  0  0  0  0  0  0
    6.0540   -3.0806    2.8056 C   0  0  0  0  0  0  0  0  0  0  0  0
    4.8893   -3.4291    2.2366 C   0  0  0  0  0  0  0  0  0  0  0  0
    3.8470   -2.5776    2.2150 C   0  0  0  0  0  0  0  0  0  0  0  0
    3.9992   -1.3709    2.7921 C   0  0  0  0  0  0  0  0  0  0  0  0
    2.6784   -2.9488    1.6359 N   0  0  0  0  0  0  0  0  0  0  0  0
    1.9944   -3.9602    2.2199 C   0  0  0  0  0  0  0  0  0  0  0  0
    0.6647   -4.1003    2.1301 C   0  0  0  0  0  0  0  0  0  0  0  0
   -0.1581   -3.1148    1.3388 C   0  0  0  0  0  0  0  0  0  0  0  0
    0.7241   -2.6343    0.1810 C   0  0  0  0  0  0  0  0  0  0  0  0
    2.0742   -2.1382    0.7068 C   0  0  0  0  0  0  0  0  0  0  0  0
    7.3458   -1.5294    3.9351 F   0  0  0  0  0  0  0  0  0  0  0  0
    2.5731   -1.1181    0.3002 O   0  0  0  0  0  0  0  0  0  0  0  0
   -0.0081   -1.6208   -0.7012 C   0  0  0  0  0  0  0  0  0  0  0  0
   -0.5902   -1.9497   -1.7043 O   0  0  0  0  0  0  0  0  0  0  0  0
    0.0633   -0.3430   -0.2362 N   0  0  0  0  0  0  0  0  0  0  0  0
   -0.4800    0.8212   -0.6452 C   0  0  0  0  0  0  0  0  0  0  0  0
   -1.3316   -3.6885    0.8063 O   0  0  0  0  0  0  0  0  0  0  0  0
   -2.3839   -3.7905    1.7337 C   0  0  0  0  0  0  0  0  0  0  0  0
   -3.5689   -4.4687    1.0522 C   0  0  0  0  0  0  0  0  0  0  0  0
   -0.1042    1.9160    0.0396 C   0  0  0  0  0  0  0  0  0  0  0  0
   -0.5716    3.1374   -0.2639 C   0  0  0  0  0  0  0  0  0  0  0  0
   -1.4485    3.3151   -1.2710 C   0  0  0  0  0  0  0  0  0  0  0  0
   -1.8188    2.2152   -1.9530 C   0  0  0  0  0  0  0  0  0  0  0  0
   -1.3535    0.9930   -1.6506 C   0  0  0  0  0  0  0  0  0  0  0  0
   -1.9298    4.5575   -1.5948 O   0  0  0  0  0  0  0  0  0  0  0  0
   -3.2603    4.7427   -1.3187 C   0  0  0  0  0  0  0  0  0  0  0  0
   -0.1708    4.1776    0.4519 F   0  0  0  0  0  0  0  0  0  0  0  0
   -3.7183    4.7258   -0.0536 C   0  0  0  0  0  0  0  0  0  0  0  0
   -5.0241    4.9130    0.1813 C   0  0  0  0  0  0  0  0  0  0  0  0
   -5.8750    5.1130   -0.7309 N   0  0  0  0  0  0  0  0  0  0  0  0
   -5.4898    5.1461   -1.9381 C   0  0  0  0  0  0  0  0  0  0  0  0
   -4.1930    4.9677   -2.2693 C   0  0  0  0  0  0  0  0  0  0  0  0
   -3.7040    5.0248   -3.9351 Cl  0  0  0  0  0  0  0  0  0  0  0  0
   -6.3313    5.3505   -2.8653 N   0  0  0  0  0  0  0  0  0  0  0  0
    5.2671   -0.0285    3.8334 H   0  0  0  0  0  0  0  0  0  0  0  0
    6.8984   -3.7900    2.8081 H   0  0  0  0  0  0  0  0  0  0  0  0
    4.8033   -4.4266    1.7730 H   0  0  0  0  0  0  0  0  0  0  0  0
    3.1625   -0.6523    2.8196 H   0  0  0  0  0  0  0  0  0  0  0  0
    2.5531   -4.6855    2.8351 H   0  0  0  0  0  0  0  0  0  0  0  0
    0.1640   -4.9299    2.6534 H   0  0  0  0  0  0  0  0  0  0  0  0
   -0.4242   -2.2465    1.9856 H   0  0  0  0  0  0  0  0  0  0  0  0
    0.9692   -3.5060   -0.4764 H   0  0  0  0  0  0  0  0  0  0  0  0
    0.6893   -0.1841    0.5426 H   0  0  0  0  0  0  0  0  0  0  0  0
   -2.0633   -4.3890    2.6157 H   0  0  0  0  0  0  0  0  0  0  0  0
   -2.6815   -2.7698    2.0696 H   0  0  0  0  0  0  0  0  0  0  0  0
   -4.4315   -4.5629    1.7514 H   0  0  0  0  0  0  0  0  0  0  0  0
   -3.9104   -3.8847    0.1667 H   0  0  0  0  0  0  0  0  0  0  0  0
   -3.2990   -5.4926    0.7049 H   0  0  0  0  0  0  0  0  0  0  0  0
    0.6079    1.8226    0.8780 H   0  0  0  0  0  0  0  0  0  0  0  0
   -2.5322    2.3184   -2.7884 H   0  0  0  0  0  0  0  0  0  0  0  0
   -1.7212    0.1521   -2.2554 H   0  0  0  0  0  0  0  0  0  0  0  0
   -3.0290    4.5594    0.7902 H   0  0  0  0  0  0  0  0  0  0  0  0
   -5.4085    4.8977    1.2152 H   0  0  0  0  0  0  0  0  0  0  0  0
   -6.0175    5.3790   -3.8666 H   0  0  0  0  0  0  0  0  0  0  0  0
   -7.3458    5.4926   -2.6378 H   0  0  0  0  0  0  0  0  0  0  0  0
  1  2  1  0      
  1  6  2  0      
  1 37  1  0      
  2  3  2  0      
  2 13  1  0      
  3  4  1  0      
  3 38  1  0      
  4  5  2  0      
  4 39  1  0      
  5  6  1  0      
  5  7  1  0      
  6 40  1  0      
  7  8  1  0      
 12  7  1  0      
  8  9  2  0      
  8 41  1  0      
  9 10  1  0      
  9 42  1  0      
 11 10  1  0      
 10 19  1  0      
 10 43  1  0      
 11 12  1  0      
 11 15  1  0      
 11 44  1  0      
 12 14  2  0      
 15 16  2  0      
 15 17  1  0      
 17 18  1  0      
 17 45  1  0      
 18 22  1  0      
 18 26  2  0      
 19 20  1  0      
 20 21  1  0      
 20 46  1  0      
 20 47  1  0      
 21 48  1  0      
 21 49  1  0      
 21 50  1  0      
 22 23  2  0      
 22 51  1  0      
 23 24  1  0      
 23 29  1  0      
 24 25  2  0      
 24 27  1  0      
 25 26  1  0      
 25 52  1  0      
 26 53  1  0      
 27 28  1  0      
 28 30  2  0      
 34 28  1  0      
 30 31  1  0      
 30 54  1  0      
 31 32  2  0      
 31 55  1  0      
 32 33  1  0      
 34 33  2  0      
 33 36  1  0      
 34 35  1  0      
 36 56  1  0      
 36 57  1  0      
M  END
