
  Chem3D Core 14.008141513373D

 42 46  0  0  0  0  0  0  0  0999 V2000
    5.3644   -1.0712    2.7573 O   0  0  0  0  0  0  0  0  0  0  0  0
    4.2007   -0.7276    2.8243 C   0  0  0  0  0  0  0  0  0  0  0  0
    3.3832   -0.3197    1.5850 C   0  0  0  0  0  0  0  0  0  0  0  0
    3.8690   -1.0748    0.4812 O   0  0  0  0  0  0  0  0  0  0  0  0
    3.6726    1.1622    1.3064 C   0  0  0  0  0  0  0  0  0  0  0  0
    2.9664    1.7304    0.0672 C   0  0  0  0  0  0  0  0  0  0  0  0
    1.8998   -0.5951    1.7386 C   0  0  0  0  0  0  0  0  0  0  0  0
    1.1145   -0.9069    0.6872 C   0  0  0  0  0  0  0  0  0  0  0  0
   -0.1941   -1.1114    0.8894 C   0  0  0  0  0  0  0  0  0  0  0  0
    1.3539   -0.4907    2.9660 C   0  0  0  0  0  0  0  0  0  0  0  0
    2.2537   -0.1255    4.1143 C   0  0  0  0  0  0  0  0  0  0  0  0
    3.5361   -0.6991    4.0112 O   0  0  0  0  0  0  0  0  0  0  0  0
    0.0144   -0.6988    3.1202 C   0  0  0  0  0  0  0  0  0  0  0  0
   -0.6301   -0.9930    2.0756 N   0  0  0  0  0  0  0  0  0  0  0  0
   -2.0838   -1.2508    2.0952 C   0  0  0  0  0  0  0  0  0  0  0  0
   -2.3038   -1.5283    0.6427 C   0  0  0  0  0  0  0  0  0  0  0  0
   -1.1409   -1.4273   -0.0094 C   0  0  0  0  0  0  0  0  0  0  0  0
   -1.0351   -1.6105   -1.2538 N   0  0  0  0  0  0  0  0  0  0  0  0
   -2.0772   -1.9047   -1.9182 C   0  0  0  0  0  0  0  0  0  0  0  0
   -1.9546   -2.0982   -3.2447 C   0  0  0  0  0  0  0  0  0  0  0  0
   -3.0213   -2.4108   -3.9961 C   0  0  0  0  0  0  0  0  0  0  0  0
   -4.2279   -2.5335   -3.4243 C   0  0  0  0  0  0  0  0  0  0  0  0
   -4.3628   -2.3429   -2.1032 C   0  0  0  0  0  0  0  0  0  0  0  0
   -3.2962   -2.0293   -1.3457 C   0  0  0  0  0  0  0  0  0  0  0  0
   -3.4226   -1.8358   -0.0198 C   0  0  0  0  0  0  0  0  0  0  0  0
   -0.5309   -0.5997    4.2000 O   0  0  0  0  0  0  0  0  0  0  0  0
    3.3279   -0.9201   -0.2922 H   0  0  0  0  0  0  0  0  0  0  0  0
    3.3770    1.7771    2.1891 H   0  0  0  0  0  0  0  0  0  0  0  0
    4.7734    1.3011    1.1776 H   0  0  0  0  0  0  0  0  0  0  0  0
    3.2272    1.1586   -0.8519 H   0  0  0  0  0  0  0  0  0  0  0  0
    1.8593    1.7195    0.1831 H   0  0  0  0  0  0  0  0  0  0  0  0
    3.2643    2.7903   -0.1062 H   0  0  0  0  0  0  0  0  0  0  0  0
    1.5081   -0.9887   -0.3360 H   0  0  0  0  0  0  0  0  0  0  0  0
    2.3485    0.9808    4.1939 H   0  0  0  0  0  0  0  0  0  0  0  0
    1.8438   -0.4949    5.0820 H   0  0  0  0  0  0  0  0  0  0  0  0
   -2.6622   -0.3538    2.4161 H   0  0  0  0  0  0  0  0  0  0  0  0
   -2.3398   -2.1440    2.7105 H   0  0  0  0  0  0  0  0  0  0  0  0
   -0.9701   -2.0019   -3.7349 H   0  0  0  0  0  0  0  0  0  0  0  0
   -2.9072   -2.5666   -5.0820 H   0  0  0  0  0  0  0  0  0  0  0  0
   -5.1065   -2.7903   -4.0397 H   0  0  0  0  0  0  0  0  0  0  0  0
   -5.3644   -2.4484   -1.6525 H   0  0  0  0  0  0  0  0  0  0  0  0
   -4.3808   -1.9190    0.5156 H   0  0  0  0  0  0  0  0  0  0  0  0
  1  2  2  0      
  2  3  1  0      
  2 12  1  0      
  3  4  1  0      
  3  5  1  0      
  3  7  1  0      
  4 27  1  0      
  5  6  1  0      
  5 28  1  0      
  5 29  1  0      
  6 30  1  0      
  6 31  1  0      
  6 32  1  0      
  7  8  1  0      
  7 10  2  0      
  8  9  2  0      
  8 33  1  0      
  9 14  1  0      
  9 17  1  0      
 10 11  1  0      
 10 13  1  0      
 11 12  1  0      
 11 34  1  0      
 11 35  1  0      
 13 14  1  0      
 13 26  2  0      
 14 15  1  0      
 15 16  1  0      
 15 36  1  0      
 15 37  1  0      
 16 17  2  0      
 16 25  1  0      
 17 18  1  0      
 18 19  2  0      
 19 20  1  0      
 19 24  1  0      
 20 21  2  0      
 20 38  1  0      
 21 22  1  0      
 21 39  1  0      
 22 23  2  0      
 22 40  1  0      
 23 24  1  0      
 23 41  1  0      
 24 25  2  0      
 25 42  1  0      
M  END
