
  Chem3D Core 15.010081518013D

 40 42  0  0  0  0  0  0  0  0999 V2000
    2.8281    2.1080   -0.4784 C   0  0  0  0  0  0  0  0  0  0  0  0
    1.8481    3.0090   -0.5045 C   0  0  0  0  0  0  0  0  0  0  0  0
    0.6997    2.3045   -0.4698 C   0  0  0  0  0  0  0  0  0  0  0  0
    1.0473    1.0667   -0.3596 N   0  0  0  0  0  0  0  0  0  0  0  0
    2.2885    0.9725   -0.4103 N   0  0  0  0  0  0  0  0  0  0  0  0
    4.3181    2.2981   -0.5318 C   0  0  0  0  0  0  0  0  0  0  0  0
    4.8944    1.8001    0.5512 F   0  0  0  0  0  0  0  0  0  0  0  0
    4.8346    1.6769   -1.5808 F   0  0  0  0  0  0  0  0  0  0  0  0
    4.6473    3.5770   -0.6149 F   0  0  0  0  0  0  0  0  0  0  0  0
   -0.4787    2.9332   -0.6999 C   0  0  0  0  0  0  0  0  0  0  0  0
   -1.8024    4.8900   -0.7287 C   0  0  0  0  0  0  0  0  0  0  0  0
   -0.6469    4.2543   -0.4768 C   0  0  0  0  0  0  0  0  0  0  0  0
   -1.5317    2.3162   -1.2748 C   0  0  0  0  0  0  0  0  0  0  0  0
   -2.6915    2.9396   -1.5362 C   0  0  0  0  0  0  0  0  0  0  0  0
   -2.8534    4.2410   -1.2527 C   0  0  0  0  0  0  0  0  0  0  0  0
   -4.1430    4.9697   -1.5438 C   0  0  0  0  0  0  0  0  0  0  0  0
    0.3826   -0.0165   -0.1512 C   0  0  0  0  0  0  0  0  0  0  0  0
   -0.9924   -2.3675    0.3419 C   0  0  0  0  0  0  0  0  0  0  0  0
    0.2908   -2.3859   -0.0434 C   0  0  0  0  0  0  0  0  0  0  0  0
    0.9543   -1.2389   -0.2622 C   0  0  0  0  0  0  0  0  0  0  0  0
   -0.8925   -0.0424    0.2921 C   0  0  0  0  0  0  0  0  0  0  0  0
   -1.5759   -1.1750    0.5219 C   0  0  0  0  0  0  0  0  0  0  0  0
   -0.9572   -5.1508    1.3183 N   0  0  0  0  0  0  0  0  0  0  0  0
   -1.8825   -3.8822    0.6634 S   0  0  0  0  0  0  0  0  0  0  0  0
   -2.1611   -4.7407   -0.4919 O   0  0  0  0  0  0  0  0  0  0  0  0
   -2.7063   -3.9229    1.8757 O   0  0  0  0  0  0  0  0  0  0  0  0
    2.0194    4.0857   -0.6156 H   0  0  0  0  0  0  0  0  0  0  0  0
   -1.8944    5.9651   -0.4989 H   0  0  0  0  0  0  0  0  0  0  0  0
    0.1453    4.8749   -0.0279 H   0  0  0  0  0  0  0  0  0  0  0  0
   -1.4585    1.2775   -1.6355 H   0  0  0  0  0  0  0  0  0  0  0  0
   -3.5084    2.3801   -2.0220 H   0  0  0  0  0  0  0  0  0  0  0  0
   -4.5981    5.3362   -0.5955 H   0  0  0  0  0  0  0  0  0  0  0  0
   -3.9547    5.8449   -2.2065 H   0  0  0  0  0  0  0  0  0  0  0  0
   -4.8944    4.3236   -2.0503 H   0  0  0  0  0  0  0  0  0  0  0  0
    0.8127   -3.3480   -0.1834 H   0  0  0  0  0  0  0  0  0  0  0  0
    2.0043   -1.3697   -0.5756 H   0  0  0  0  0  0  0  0  0  0  0  0
   -1.4257    0.8795    0.5679 H   0  0  0  0  0  0  0  0  0  0  0  0
   -2.6117   -1.1165    0.8980 H   0  0  0  0  0  0  0  0  0  0  0  0
   -1.3543   -5.4541    2.2065 H   0  0  0  0  0  0  0  0  0  0  0  0
   -0.9936   -5.9651    0.7067 H   0  0  0  0  0  0  0  0  0  0  0  0
  1  2  1  0      
  1  5  2  0      
  1  6  1  0      
  2  3  2  0      
  2 27  1  0      
  3  4  1  0      
  3 10  1  0      
  4  5  1  0      
  4 17  1  0      
  6  7  1  0      
  6  8  1  0      
  6  9  1  0      
 10 12  1  0      
 10 13  2  0      
 12 11  2  0      
 11 15  1  0      
 11 28  1  0      
 12 29  1  0      
 14 13  1  0      
 13 30  1  0      
 15 14  2  0      
 14 31  1  0      
 15 16  1  0      
 16 32  1  0      
 16 33  1  0      
 16 34  1  0      
 17 20  1  0      
 17 21  2  0      
 19 18  1  0      
 18 22  2  0      
 18 24  1  0      
 20 19  2  0      
 19 35  1  0      
 20 36  1  0      
 22 21  1  0      
 21 37  1  0      
 22 38  1  0      
 23 24  1  0      
 23 39  1  0      
 23 40  1  0      
 24 25  2  0      
 24 26  2  0      
M  END
