
  Chem3D Core 15.010151510563D

 59 64  0  0  0  0  0  0  0  0999 V2000
    5.5294   -0.0540   -1.2616 N   0  0  0  0  0  0  0  0  0  0  0  0
    4.4201    0.0524   -1.5789 C   0  0  0  0  0  0  0  0  0  0  0  0
    3.0048    0.1633   -2.0097 C   0  0  0  0  0  0  0  0  0  0  0  0
    2.9925    0.7420   -3.4363 C   0  0  0  0  0  0  0  0  0  0  0  0
    2.4400   -1.2723   -2.0049 C   0  0  0  0  0  0  0  0  0  0  0  0
    2.2018    1.0695   -1.0816 C   0  0  0  0  0  0  0  0  0  0  0  0
    2.7626    1.8684   -0.1590 C   0  0  0  0  0  0  0  0  0  0  0  0
    2.0272    2.6503    0.6504 C   0  0  0  0  0  0  0  0  0  0  0  0
    0.6762    2.6807    0.6409 C   0  0  0  0  0  0  0  0  0  0  0  0
   -0.0862    3.4002    1.3903 N   0  0  0  0  0  0  0  0  0  0  0  0
   -1.3391    3.2312    1.6664 C   0  0  0  0  0  0  0  0  0  0  0  0
   -1.7934    4.3372    2.2785 C   0  0  0  0  0  0  0  0  0  0  0  0
   -3.0782    4.5170    2.5952 C   0  0  0  0  0  0  0  0  0  0  0  0
   -3.9339    3.6207    2.3542 N   0  0  0  0  0  0  0  0  0  0  0  0
   -3.5406    2.5058    1.8929 C   0  0  0  0  0  0  0  0  0  0  0  0
   -4.4724    1.5506    1.7431 C   0  0  0  0  0  0  0  0  0  0  0  0
   -4.1522    0.3205    1.3175 C   0  0  0  0  0  0  0  0  0  0  0  0
   -2.8769   -0.0439    1.0739 C   0  0  0  0  0  0  0  0  0  0  0  0
   -2.5209   -1.3043    0.7011 C   0  0  0  0  0  0  0  0  0  0  0  0
   -3.3871   -2.3381    0.6216 C   0  0  0  0  0  0  0  0  0  0  0  0
   -2.9941   -3.5672    0.2396 C   0  0  0  0  0  0  0  0  0  0  0  0
   -3.8534   -4.6007    0.1639 C   0  0  0  0  0  0  0  0  0  0  0  0
   -3.4312   -5.8147   -0.2222 C   0  0  0  0  0  0  0  0  0  0  0  0
   -2.1419   -6.0058   -0.5370 C   0  0  0  0  0  0  0  0  0  0  0  0
   -1.2804   -4.9801   -0.4630 C   0  0  0  0  0  0  0  0  0  0  0  0
   -1.7011   -3.7627   -0.0753 C   0  0  0  0  0  0  0  0  0  0  0  0
   -0.8731   -2.8091   -0.0126 N   0  0  0  0  0  0  0  0  0  0  0  0
   -1.2650   -1.6625    0.3523 C   0  0  0  0  0  0  0  0  0  0  0  0
   -1.9823    0.9538    1.2503 C   0  0  0  0  0  0  0  0  0  0  0  0
   -2.2579    2.2384    1.5586 C   0  0  0  0  0  0  0  0  0  0  0  0
    0.2651    4.4900    1.9714 C   0  0  0  0  0  0  0  0  0  0  0  0
   -0.7698    5.0548    2.4175 N   0  0  0  0  0  0  0  0  0  0  0  0
   -0.7950    6.3929    3.0272 C   0  0  0  0  0  0  0  0  0  0  0  0
    1.3613    5.0019    2.0459 O   0  0  0  0  0  0  0  0  0  0  0  0
    0.1508    1.9377   -0.3579 C   0  0  0  0  0  0  0  0  0  0  0  0
    0.8669    1.1584   -1.1820 C   0  0  0  0  0  0  0  0  0  0  0  0
    1.9608    0.8001   -3.8503 H   0  0  0  0  0  0  0  0  0  0  0  0
    3.5906    0.1129   -4.1345 H   0  0  0  0  0  0  0  0  0  0  0  0
    3.4212    1.7703   -3.4561 H   0  0  0  0  0  0  0  0  0  0  0  0
    3.0650   -1.9541   -2.6260 H   0  0  0  0  0  0  0  0  0  0  0  0
    2.4114   -1.6889   -0.9717 H   0  0  0  0  0  0  0  0  0  0  0  0
    1.4091   -1.3313   -2.4183 H   0  0  0  0  0  0  0  0  0  0  0  0
    3.8579    1.8862   -0.0363 H   0  0  0  0  0  0  0  0  0  0  0  0
    2.6297    3.2064    1.3819 H   0  0  0  0  0  0  0  0  0  0  0  0
   -3.4426    5.4444    3.0637 H   0  0  0  0  0  0  0  0  0  0  0  0
   -5.5294    1.7680    1.9819 H   0  0  0  0  0  0  0  0  0  0  0  0
   -5.0060   -0.3660    1.2229 H   0  0  0  0  0  0  0  0  0  0  0  0
   -4.4513   -2.2320    0.8743 H   0  0  0  0  0  0  0  0  0  0  0  0
   -4.9200   -4.4723    0.4161 H   0  0  0  0  0  0  0  0  0  0  0  0
   -4.1429   -6.6553   -0.2817 H   0  0  0  0  0  0  0  0  0  0  0  0
   -1.7918   -7.0020   -0.8553 H   0  0  0  0  0  0  0  0  0  0  0  0
   -0.2216   -5.1495   -0.7248 H   0  0  0  0  0  0  0  0  0  0  0  0
   -0.4188   -0.9597    0.3300 H   0  0  0  0  0  0  0  0  0  0  0  0
   -0.9182    0.7021    1.2224 H   0  0  0  0  0  0  0  0  0  0  0  0
    0.1062    7.0020    2.7963 H   0  0  0  0  0  0  0  0  0  0  0  0
   -1.6593    6.9855    2.6509 H   0  0  0  0  0  0  0  0  0  0  0  0
   -0.8781    6.3041    4.1345 H   0  0  0  0  0  0  0  0  0  0  0  0
   -0.9220    1.9947   -0.6064 H   0  0  0  0  0  0  0  0  0  0  0  0
    0.3348    0.6030   -1.9714 H   0  0  0  0  0  0  0  0  0  0  0  0
  1  2  3  0      
  2  3  1  0      
  3  4  1  0      
  3  5  1  0      
  3  6  1  0      
  4 37  1  0      
  4 38  1  0      
  4 39  1  0      
  5 40  1  0      
  5 41  1  0      
  5 42  1  0      
  6  7  1  0      
  6 36  2  0      
  7  8  2  0      
  7 43  1  0      
  8  9  1  0      
  8 44  1  0      
  9 10  1  0      
  9 35  2  0      
 10 11  1  0      
 10 31  1  0      
 12 11  2  0      
 30 11  1  0      
 12 13  1  0      
 32 12  1  0      
 13 14  2  0      
 13 45  1  0      
 14 15  1  0      
 15 16  2  0      
 15 30  1  0      
 16 17  1  0      
 16 46  1  0      
 17 18  2  0      
 17 47  1  0      
 18 19  1  0      
 18 29  1  0      
 19 20  2  0      
 28 19  1  0      
 20 21  1  0      
 20 48  1  0      
 21 22  2  0      
 21 26  1  0      
 22 23  1  0      
 22 49  1  0      
 23 24  2  0      
 23 50  1  0      
 24 25  1  0      
 24 51  1  0      
 25 26  2  0      
 25 52  1  0      
 26 27  1  0      
 28 27  2  0      
 28 53  1  0      
 29 30  2  0      
 29 54  1  0      
 31 32  1  0      
 31 34  2  0      
 32 33  1  0      
 33 55  1  0      
 33 56  1  0      
 33 57  1  0      
 35 36  1  0      
 35 58  1  0      
 36 59  1  0      
M  END
