
  Chem3D Core 15.008171512553D

151154  0  0  0  0  0  0  0  0999 V2000
    6.7383    4.7978    5.2461 C   0  0  0  0  0  0  0  0  0  0  0  0
    7.2413    5.5577    6.3263 O   0  0  0  0  0  0  0  0  0  0  0  0
    6.0253    5.7179    4.2713 C   0  0  0  0  0  0  0  0  0  0  0  0
    5.5298    4.9383    3.2111 O   0  0  0  0  0  0  0  0  0  0  0  0
    4.9101    5.6675    2.1817 C   0  0  0  0  0  0  0  0  0  0  0  0
    4.7872    4.7348    0.9710 C   0  0  0  0  0  0  0  0  0  0  0  0
    3.8086    3.5941    1.2813 C   0  0  0  0  0  0  0  0  0  0  0  0
    2.4056    4.0549    1.7289 C   0  0  0  0  0  0  0  0  0  0  0  0
    2.5493    5.0403    2.9041 C   0  0  0  0  0  0  0  0  0  0  0  0
    3.5279    6.1843    2.5969 C   0  0  0  0  0  0  0  0  0  0  0  0
    4.3506    5.3921   -0.1893 O   0  0  0  0  0  0  0  0  0  0  0  0
    5.3114    6.2432   -0.7775 C   0  0  0  0  0  0  0  0  0  0  0  0
    1.5505    4.6127    0.5710 C   0  0  0  0  0  0  0  0  0  0  0  0
    0.0215    4.6318    0.7900 C   0  0  0  0  0  0  0  0  0  0  0  0
   -0.6675    3.2505    0.8682 C   0  0  0  0  0  0  0  0  0  0  0  0
   -0.6290    5.5415   -0.2733 C   0  0  0  0  0  0  0  0  0  0  0  0
   -1.9890    3.4774    1.2773 O   0  0  0  0  0  0  0  0  0  0  0  0
   -2.7109    2.4565    1.8140 C   0  0  0  0  0  0  0  0  0  0  0  0
   -2.3158    1.3371    2.0491 O   0  0  0  0  0  0  0  0  0  0  0  0
   -4.1566    2.8952    2.0646 C   0  0  0  0  0  0  0  0  0  0  0  0
   -4.2529    3.5256    3.4621 C   0  0  0  0  0  0  0  0  0  0  0  0
   -5.6656    4.0718    3.7191 C   0  0  0  0  0  0  0  0  0  0  0  0
   -6.7255    3.2618    2.9569 C   0  0  0  0  0  0  0  0  0  0  0  0
   -6.2640    1.8120    2.7554 C   0  0  0  0  0  0  0  0  0  0  0  0
   -5.0663    1.7551    1.9189 N   0  0  0  0  0  0  0  0  0  0  0  0
   -5.0047    0.9515    0.8084 C   0  0  0  0  0  0  0  0  0  0  0  0
   -5.0031    1.5158   -0.2671 O   0  0  0  0  0  0  0  0  0  0  0  0
   -4.9494   -0.4084    0.8800 C   0  0  0  0  0  0  0  0  0  0  0  0
   -4.5490   -1.1939    2.1618 C   0  0  0  0  0  0  0  0  0  0  0  0
   -5.1460   -1.1076   -0.0989 O   0  0  0  0  0  0  0  0  0  0  0  0
   -5.6130   -2.2189    2.5547 C   0  0  0  0  0  0  0  0  0  0  0  0
   -5.1141   -3.1463    3.6731 C   0  0  0  0  0  0  0  0  0  0  0  0
   -3.7925   -3.7689    3.2162 C   0  0  0  0  0  0  0  0  0  0  0  0
   -2.7972   -2.6611    2.8887 C   0  0  0  0  0  0  0  0  0  0  0  0
   -3.2962   -1.8076    1.8955 O   0  0  0  0  0  0  0  0  0  0  0  0
   -4.2068   -0.3459    3.2450 O   0  0  0  0  0  0  0  0  0  0  0  0
   -6.9567   -1.5899    2.9487 C   0  0  0  0  0  0  0  0  0  0  0  0
   -1.4103   -3.1675    2.4592 C   0  0  0  0  0  0  0  0  0  0  0  0
   -1.3538   -4.0371    1.1941 C   0  0  0  0  0  0  0  0  0  0  0  0
    0.0582   -4.0447    0.6100 C   0  0  0  0  0  0  0  0  0  0  0  0
   -1.7813   -5.3458    1.5061 O   0  0  0  0  0  0  0  0  0  0  0  0
   -1.9672   -6.1500    0.3611 C   0  0  0  0  0  0  0  0  0  0  0  0
    0.2828   -3.5227   -0.6118 C   0  0  0  0  0  0  0  0  0  0  0  0
    1.1233   -4.6440    1.5038 C   0  0  0  0  0  0  0  0  0  0  0  0
   -0.6813    2.4512   -0.4455 C   0  0  0  0  0  0  0  0  0  0  0  0
    0.6634    1.8801   -0.8758 C   0  0  0  0  0  0  0  0  0  0  0  0
    1.0923    2.0511   -2.3360 C   0  0  0  0  0  0  0  0  0  0  0  0
    1.3576    1.2906   -0.0776 O   0  0  0  0  0  0  0  0  0  0  0  0
    1.4629   -3.4235   -1.2488 C   0  0  0  0  0  0  0  0  0  0  0  0
    1.5815   -2.8507   -2.4603 C   0  0  0  0  0  0  0  0  0  0  0  0
    2.7644   -2.6911   -3.0797 C   0  0  0  0  0  0  0  0  0  0  0  0
    2.8880   -2.0442   -4.2501 C   0  0  0  0  0  0  0  0  0  0  0  0
    4.2028   -1.7724   -4.9486 C   0  0  0  0  0  0  0  0  0  0  0  0
    5.3122   -1.2415   -4.0139 C   0  0  0  0  0  0  0  0  0  0  0  0
    3.9844   -0.8297   -6.1473 C   0  0  0  0  0  0  0  0  0  0  0  0
    4.9547    0.0171   -3.1912 C   0  0  0  0  0  0  0  0  0  0  0  0
    5.9355    1.1581   -3.4753 C   0  0  0  0  0  0  0  0  0  0  0  0
    4.9357   -0.2783   -1.6786 C   0  0  0  0  0  0  0  0  0  0  0  0
    5.4429    2.3417   -4.3265 C   0  0  0  0  0  0  0  0  0  0  0  0
    7.0696    1.0986   -3.0515 O   0  0  0  0  0  0  0  0  0  0  0  0
    2.5464    2.4493   -2.4656 C   0  0  0  0  0  0  0  0  0  0  0  0
    0.8573    0.7321   -3.0832 C   0  0  0  0  0  0  0  0  0  0  0  0
    3.1348    3.0610   -3.5088 C   0  0  0  0  0  0  0  0  0  0  0  0
    4.6244    3.3538   -3.5194 C   0  0  0  0  0  0  0  0  0  0  0  0
    6.5407    2.9752   -4.9564 O   0  0  0  0  0  0  0  0  0  0  0  0
    6.2094    3.5762   -6.1914 C   0  0  0  0  0  0  0  0  0  0  0  0
    5.1343    3.4177   -2.2008 O   0  0  0  0  0  0  0  0  0  0  0  0
    2.3973    3.4924   -4.7554 C   0  0  0  0  0  0  0  0  0  0  0  0
    7.6021    4.2845    4.7671 H   0  0  0  0  0  0  0  0  0  0  0  0
    6.0471    4.0336    5.6672 H   0  0  0  0  0  0  0  0  0  0  0  0
    7.7053    4.9778    6.9348 H   0  0  0  0  0  0  0  0  0  0  0  0
    5.1878    6.2279    4.7969 H   0  0  0  0  0  0  0  0  0  0  0  0
    6.7418    6.4762    3.8799 H   0  0  0  0  0  0  0  0  0  0  0  0
    5.5765    6.5228    1.9253 H   0  0  0  0  0  0  0  0  0  0  0  0
    5.7802    4.2721    0.7482 H   0  0  0  0  0  0  0  0  0  0  0  0
    3.7279    2.9127    0.4043 H   0  0  0  0  0  0  0  0  0  0  0  0
    4.2470    2.9655    2.0939 H   0  0  0  0  0  0  0  0  0  0  0  0
    1.8840    3.1415    2.1082 H   0  0  0  0  0  0  0  0  0  0  0  0
    1.5570    5.4560    3.1931 H   0  0  0  0  0  0  0  0  0  0  0  0
    2.9199    4.4866    3.7998 H   0  0  0  0  0  0  0  0  0  0  0  0
    3.1178    6.8241    1.7821 H   0  0  0  0  0  0  0  0  0  0  0  0
    3.5966    6.8666    3.4742 H   0  0  0  0  0  0  0  0  0  0  0  0
    4.9135    6.5682   -1.7651 H   0  0  0  0  0  0  0  0  0  0  0  0
    5.4675    7.1513   -0.1573 H   0  0  0  0  0  0  0  0  0  0  0  0
    6.2709    5.7074   -0.9455 H   0  0  0  0  0  0  0  0  0  0  0  0
    1.8784    5.6550    0.3615 H   0  0  0  0  0  0  0  0  0  0  0  0
    1.7650    4.0568   -0.3662 H   0  0  0  0  0  0  0  0  0  0  0  0
   -0.1561    5.1349    1.7749 H   0  0  0  0  0  0  0  0  0  0  0  0
   -0.1694    2.6558    1.6678 H   0  0  0  0  0  0  0  0  0  0  0  0
   -1.7372    5.5746   -0.1744 H   0  0  0  0  0  0  0  0  0  0  0  0
   -0.2696    6.5919   -0.1800 H   0  0  0  0  0  0  0  0  0  0  0  0
   -0.3839    5.2074   -1.3062 H   0  0  0  0  0  0  0  0  0  0  0  0
   -4.4270    3.6666    1.3031 H   0  0  0  0  0  0  0  0  0  0  0  0
   -3.5030    4.3422    3.5865 H   0  0  0  0  0  0  0  0  0  0  0  0
   -4.0025    2.7429    4.2182 H   0  0  0  0  0  0  0  0  0  0  0  0
   -5.8701    4.0449    4.8163 H   0  0  0  0  0  0  0  0  0  0  0  0
   -5.7315    5.1413    3.4060 H   0  0  0  0  0  0  0  0  0  0  0  0
   -6.9080    3.7175    1.9536 H   0  0  0  0  0  0  0  0  0  0  0  0
   -7.6979    3.2956    3.5036 H   0  0  0  0  0  0  0  0  0  0  0  0
   -7.0942    1.2505    2.2675 H   0  0  0  0  0  0  0  0  0  0  0  0
   -6.0784    1.3516    3.7518 H   0  0  0  0  0  0  0  0  0  0  0  0
   -5.8108   -2.8720    1.6666 H   0  0  0  0  0  0  0  0  0  0  0  0
   -5.8606   -3.9489    3.8824 H   0  0  0  0  0  0  0  0  0  0  0  0
   -4.9692   -2.5766    4.6201 H   0  0  0  0  0  0  0  0  0  0  0  0
   -3.3837   -4.4367    4.0106 H   0  0  0  0  0  0  0  0  0  0  0  0
   -3.9966   -4.3923    2.3159 H   0  0  0  0  0  0  0  0  0  0  0  0
   -2.6293   -2.0606    3.8171 H   0  0  0  0  0  0  0  0  0  0  0  0
   -3.2966   -0.0565    3.1328 H   0  0  0  0  0  0  0  0  0  0  0  0
   -7.7053   -2.3722    3.2102 H   0  0  0  0  0  0  0  0  0  0  0  0
   -7.3896   -1.0018    2.1093 H   0  0  0  0  0  0  0  0  0  0  0  0
   -6.8483   -0.9267    3.8353 H   0  0  0  0  0  0  0  0  0  0  0  0
   -0.9468   -3.7217    3.3098 H   0  0  0  0  0  0  0  0  0  0  0  0
   -0.7759   -2.2625    2.2871 H   0  0  0  0  0  0  0  0  0  0  0  0
   -2.0768   -3.6014    0.4657 H   0  0  0  0  0  0  0  0  0  0  0  0
   -2.3149   -7.1513    0.7001 H   0  0  0  0  0  0  0  0  0  0  0  0
   -2.7463   -5.7087   -0.2992 H   0  0  0  0  0  0  0  0  0  0  0  0
   -1.0104   -6.2766   -0.1906 H   0  0  0  0  0  0  0  0  0  0  0  0
   -0.6012   -3.1204   -1.1373 H   0  0  0  0  0  0  0  0  0  0  0  0
    1.2919   -3.9952    2.3918 H   0  0  0  0  0  0  0  0  0  0  0  0
    0.8146   -5.6506    1.8630 H   0  0  0  0  0  0  0  0  0  0  0  0
    2.1109   -4.7911    1.0222 H   0  0  0  0  0  0  0  0  0  0  0  0
   -1.3424    1.5578   -0.3501 H   0  0  0  0  0  0  0  0  0  0  0  0
   -1.1383    3.0577   -1.2564 H   0  0  0  0  0  0  0  0  0  0  0  0
    0.4640    2.8557   -2.7814 H   0  0  0  0  0  0  0  0  0  0  0  0
    2.3822   -3.7933   -0.7706 H   0  0  0  0  0  0  0  0  0  0  0  0
    0.6736   -2.4611   -2.9533 H   0  0  0  0  0  0  0  0  0  0  0  0
    3.6801   -3.0733   -2.6005 H   0  0  0  0  0  0  0  0  0  0  0  0
    1.9832   -1.6565   -4.7484 H   0  0  0  0  0  0  0  0  0  0  0  0
    4.5430   -2.7530   -5.3706 H   0  0  0  0  0  0  0  0  0  0  0  0
    5.6341   -2.0584   -3.3275 H   0  0  0  0  0  0  0  0  0  0  0  0
    6.2164   -1.0394   -4.6355 H   0  0  0  0  0  0  0  0  0  0  0  0
    4.9419   -0.6041   -6.6695 H   0  0  0  0  0  0  0  0  0  0  0  0
    3.3006   -1.2842   -6.9007 H   0  0  0  0  0  0  0  0  0  0  0  0
    3.5316    0.1372   -5.8342 H   0  0  0  0  0  0  0  0  0  0  0  0
    3.9385    0.3706   -3.4787 H   0  0  0  0  0  0  0  0  0  0  0  0
    4.7916    0.6497   -1.0814 H   0  0  0  0  0  0  0  0  0  0  0  0
    4.1056   -0.9671   -1.4061 H   0  0  0  0  0  0  0  0  0  0  0  0
    5.8885   -0.7396   -1.3340 H   0  0  0  0  0  0  0  0  0  0  0  0
    4.8227    1.8816   -5.1277 H   0  0  0  0  0  0  0  0  0  0  0  0
    3.1849    2.1464   -1.6252 H   0  0  0  0  0  0  0  0  0  0  0  0
    1.1245    0.8107   -4.1612 H   0  0  0  0  0  0  0  0  0  0  0  0
   -0.2092    0.4166   -3.0211 H   0  0  0  0  0  0  0  0  0  0  0  0
    1.4794   -0.0748   -2.6362 H   0  0  0  0  0  0  0  0  0  0  0  0
    4.7375    4.3901   -3.9130 H   0  0  0  0  0  0  0  0  0  0  0  0
    7.1122    4.1092   -6.5648 H   0  0  0  0  0  0  0  0  0  0  0  0
    5.9282    2.7971   -6.9348 H   0  0  0  0  0  0  0  0  0  0  0  0
    5.3854    4.3120   -6.0713 H   0  0  0  0  0  0  0  0  0  0  0  0
    4.4723    3.8173   -1.6329 H   0  0  0  0  0  0  0  0  0  0  0  0
    1.3187    3.2321   -4.7593 H   0  0  0  0  0  0  0  0  0  0  0  0
    2.4681    4.5970   -4.8757 H   0  0  0  0  0  0  0  0  0  0  0  0
    2.8426    3.0157   -5.6568 H   0  0  0  0  0  0  0  0  0  0  0  0
  1  2  1  0      
  1  3  1  0      
  1 69  1  0      
  1 70  1  0      
  2 71  1  0      
  3  4  1  0      
  3 72  1  0      
  3 73  1  0      
  5  4  1  0      
  5  6  1  0      
  5 10  1  0      
  5 74  1  0      
  6  7  1  0      
  6 11  1  0      
  6 75  1  0      
  7  8  1  0      
  7 76  1  0      
  7 77  1  0      
  8  9  1  0      
  8 13  1  0      
  8 78  1  0      
  9 10  1  0      
  9 79  1  0      
  9 80  1  0      
 10 81  1  0      
 10 82  1  0      
 11 12  1  0      
 12 83  1  0      
 12 84  1  0      
 12 85  1  0      
 13 14  1  0      
 13 86  1  0      
 13 87  1  0      
 14 15  1  0      
 14 16  1  0      
 14 88  1  0      
 15 17  1  0      
 15 45  1  0      
 15 89  1  0      
 16 90  1  0      
 16 91  1  0      
 16 92  1  0      
 17 18  1  0      
 18 19  2  0      
 20 18  1  0      
 20 21  1  0      
 20 25  1  0      
 20 93  1  0      
 21 22  1  0      
 21 94  1  0      
 21 95  1  0      
 22 23  1  0      
 22 96  1  0      
 22 97  1  0      
 23 24  1  0      
 23 98  1  0      
 23 99  1  0      
 24 25  1  0      
 24100  1  0      
 24101  1  0      
 25 26  1  0      
 26 27  2  0      
 26 28  1  0      
 28 29  1  0      
 28 30  2  0      
 29 31  1  0      
 29 35  1  0      
 29 36  1  0      
 31 32  1  0      
 31 37  1  0      
 31102  1  0      
 32 33  1  0      
 32103  1  0      
 32104  1  0      
 33 34  1  0      
 33105  1  0      
 33106  1  0      
 34 35  1  0      
 34 38  1  0      
 34107  1  0      
 36108  1  0      
 37109  1  0      
 37110  1  0      
 37111  1  0      
 38 39  1  0      
 38112  1  0      
 38113  1  0      
 39 40  1  0      
 39 41  1  0      
 39114  1  0      
 40 43  2  0      
 40 44  1  0      
 41 42  1  0      
 42115  1  0      
 42116  1  0      
 42117  1  0      
 43 49  1  0      
 43118  1  0      
 44119  1  0      
 44120  1  0      
 44121  1  0      
 45 46  1  0      
 45122  1  0      
 45123  1  0      
 46 47  1  0      
 46 48  2  0      
 47 61  1  0      
 47 62  1  0      
 47124  1  0      
 49 50  2  0      
 49125  1  0      
 50 51  1  0      
 50126  1  0      
 51 52  2  0      
 51127  1  0      
 52 53  1  0      
 52128  1  0      
 53 54  1  0      
 53 55  1  0      
 53129  1  0      
 54 56  1  0      
 54130  1  0      
 54131  1  0      
 55132  1  0      
 55133  1  0      
 55134  1  0      
 56 57  1  0      
 56 58  1  0      
 56135  1  0      
 57 59  1  0      
 57 60  2  0      
 58136  1  0      
 58137  1  0      
 58138  1  0      
 59 64  1  0      
 59 65  1  0      
 59139  1  0      
 61 63  2  0      
 61140  1  0      
 62141  1  0      
 62142  1  0      
 62143  1  0      
 63 64  1  0      
 63 68  1  0      
 64 67  1  0      
 64144  1  0      
 65 66  1  0      
 66145  1  0      
 66146  1  0      
 66147  1  0      
 67148  1  0      
 68149  1  0      
 68150  1  0      
 68151  1  0      
M  END
