
  Chem3D Core 14.004271611323D

 56 60  0  0  0  0  0  0  0  0999 V2000
    2.6926   -2.7505    0.6446 C   0  0  0  0  0  0  0  0  0  0  0  0
    2.3970   -1.3693    0.2514 N   0  0  0  0  0  0  0  0  0  0  0  0
    3.2610   -0.5578   -0.1843 C   0  0  0  0  0  0  0  0  0  0  0  0
    2.6999    0.5471   -0.4396 N   0  0  0  0  0  0  0  0  0  0  0  0
    1.4651    0.4170   -0.1628 C   0  0  0  0  0  0  0  0  0  0  0  0
    1.2541   -0.8326    0.2962 C   0  0  0  0  0  0  0  0  0  0  0  0
    0.5511    1.3903   -0.3132 C   0  0  0  0  0  0  0  0  0  0  0  0
    0.7937    2.6343   -0.7504 C   0  0  0  0  0  0  0  0  0  0  0  0
   -0.3440    3.3381   -0.7392 C   0  0  0  0  0  0  0  0  0  0  0  0
   -0.4647    4.5502   -1.0746 N   0  0  0  0  0  0  0  0  0  0  0  0
   -1.6235    5.0486   -0.9852 C   0  0  0  0  0  0  0  0  0  0  0  0
   -2.6994    4.3657   -0.5615 C   0  0  0  0  0  0  0  0  0  0  0  0
   -2.6091    3.0706   -0.1956 C   0  0  0  0  0  0  0  0  0  0  0  0
   -3.7524    2.4266    0.2231 O   0  0  0  0  0  0  0  0  0  0  0  0
   -3.6443    1.1667    0.7457 C   0  0  0  0  0  0  0  0  0  0  0  0
   -3.9077    0.0839   -0.0093 C   0  0  0  0  0  0  0  0  0  0  0  0
   -3.7607   -1.1623    0.4633 C   0  0  0  0  0  0  0  0  0  0  0  0
   -3.3367   -1.3688    1.7218 C   0  0  0  0  0  0  0  0  0  0  0  0
   -3.1286   -2.5187    2.2238 N   0  0  0  0  0  0  0  0  0  0  0  0
   -3.2451   -3.6383    1.6388 C   0  0  0  0  0  0  0  0  0  0  0  0
   -4.3216   -4.6397    2.2160 S   0  0  0  0  0  0  0  0  0  0  0  0
   -2.3857   -3.8417    0.5779 N   0  0  0  0  0  0  0  0  0  0  0  0
   -2.0015   -5.0008   -0.0597 C   0  0  0  0  0  0  0  0  0  0  0  0
   -2.3644   -6.1074    0.2602 O   0  0  0  0  0  0  0  0  0  0  0  0
   -1.0547   -4.7762   -1.2308 C   0  0  0  0  0  0  0  0  0  0  0  0
   -1.2766   -3.4430   -1.9110 C   0  0  0  0  0  0  0  0  0  0  0  0
   -2.5012   -3.0920   -2.3423 C   0  0  0  0  0  0  0  0  0  0  0  0
   -2.7159   -1.8985   -2.9170 C   0  0  0  0  0  0  0  0  0  0  0  0
   -1.7005   -1.0366   -3.0745 C   0  0  0  0  0  0  0  0  0  0  0  0
   -0.4711   -1.3807   -2.6638 C   0  0  0  0  0  0  0  0  0  0  0  0
   -0.2654   -2.5744   -2.0862 C   0  0  0  0  0  0  0  0  0  0  0  0
   -3.1167   -0.2939    2.4984 C   0  0  0  0  0  0  0  0  0  0  0  0
   -3.2725    0.9525    2.0236 C   0  0  0  0  0  0  0  0  0  0  0  0
   -3.0163    1.9858    2.8118 F   0  0  0  0  0  0  0  0  0  0  0  0
   -1.3584    2.5706   -0.3062 C   0  0  0  0  0  0  0  0  0  0  0  0
   -0.8734    1.2182   -0.0102 S   0  0  0  0  0  0  0  0  0  0  0  0
    1.7659   -3.3210    0.8812 H   0  0  0  0  0  0  0  0  0  0  0  0
    3.2142   -3.2860   -0.1812 H   0  0  0  0  0  0  0  0  0  0  0  0
    3.3446   -2.7614    1.5476 H   0  0  0  0  0  0  0  0  0  0  0  0
    4.3216   -0.8000   -0.3107 H   0  0  0  0  0  0  0  0  0  0  0  0
    0.3498   -1.3450    0.6414 H   0  0  0  0  0  0  0  0  0  0  0  0
    1.7721    3.0335   -1.0529 H   0  0  0  0  0  0  0  0  0  0  0  0
   -1.7215    6.1074   -1.2795 H   0  0  0  0  0  0  0  0  0  0  0  0
   -3.6766    4.8753   -0.5138 H   0  0  0  0  0  0  0  0  0  0  0  0
   -4.2296    0.2253   -1.0553 H   0  0  0  0  0  0  0  0  0  0  0  0
   -3.9836   -1.9985   -0.2179 H   0  0  0  0  0  0  0  0  0  0  0  0
   -2.8043   -2.5430    3.2227 H   0  0  0  0  0  0  0  0  0  0  0  0
   -1.9667   -2.9891    0.2217 H   0  0  0  0  0  0  0  0  0  0  0  0
   -0.0183   -4.8597   -0.8292 H   0  0  0  0  0  0  0  0  0  0  0  0
   -1.1880   -5.5871   -1.9842 H   0  0  0  0  0  0  0  0  0  0  0  0
   -3.3480   -3.7869   -2.2157 H   0  0  0  0  0  0  0  0  0  0  0  0
   -3.7290   -1.6229   -3.2547 H   0  0  0  0  0  0  0  0  0  0  0  0
   -1.8742   -0.0526   -3.5409 H   0  0  0  0  0  0  0  0  0  0  0  0
    0.3693   -0.6788   -2.7963 H   0  0  0  0  0  0  0  0  0  0  0  0
    0.7511   -2.8369   -1.7510 H   0  0  0  0  0  0  0  0  0  0  0  0
   -2.7768   -0.4184    3.5409 H   0  0  0  0  0  0  0  0  0  0  0  0
  1  2  1  0      
  1 37  1  0      
  1 38  1  0      
  1 39  1  0      
  2  3  1  0      
  6  2  1  0      
  3  4  2  0      
  3 40  1  0      
  5  4  1  0      
  5  6  2  0      
  5  7  1  0      
  6 41  1  0      
  7  8  2  0      
  7 36  1  0      
  8  9  1  0      
  8 42  1  0      
  9 10  2  0      
  9 35  1  0      
 10 11  1  0      
 11 12  2  0      
 11 43  1  0      
 12 13  1  0      
 12 44  1  0      
 13 14  1  0      
 13 35  2  0      
 14 15  1  0      
 15 16  1  0      
 15 33  2  0      
 16 17  2  0      
 16 45  1  0      
 17 18  1  0      
 17 46  1  0      
 18 19  1  0      
 18 32  2  0      
 19 20  1  0      
 19 47  1  0      
 20 21  2  0      
 20 22  1  0      
 22 23  1  0      
 22 48  1  0      
 23 24  2  0      
 23 25  1  0      
 25 26  1  0      
 25 49  1  0      
 25 50  1  0      
 26 27  1  0      
 26 31  2  0      
 27 28  2  0      
 27 51  1  0      
 28 29  1  0      
 28 52  1  0      
 29 30  2  0      
 29 53  1  0      
 30 31  1  0      
 30 54  1  0      
 31 55  1  0      
 32 33  1  0      
 32 56  1  0      
 33 34  1  0      
 35 36  1  0      
M  END
