
  Chem3D Core 15.009291515023D

 61 65  0  0  0  0  0  0  0  0999 V2000
    1.8483   -6.2461    5.5440 F   0  0  0  0  0  0  0  0  0  0  0  0
    1.0463   -7.2264    3.8284 F   0  0  0  0  0  0  0  0  0  0  0  0
   -0.2550   -6.5875    5.3927 F   0  0  0  0  0  0  0  0  0  0  0  0
   -3.5646   -1.9593    1.6323 O   0  0  0  0  0  0  0  0  0  0  0  0
    2.6836   -2.2609    2.7915 N   0  0  0  0  0  0  0  0  0  0  0  0
   -1.9703   -2.9163    2.7621 N   0  0  0  0  0  0  0  0  0  0  0  0
   -2.1566    2.4926    0.8544 N   0  0  0  0  0  0  0  0  0  0  0  0
    4.7428   -1.6253    2.6479 N   0  0  0  0  0  0  0  0  0  0  0  0
   -2.6916    3.9215   -0.6434 N   0  0  0  0  0  0  0  0  0  0  0  0
   -1.3671    4.6191    0.9593 N   0  0  0  0  0  0  0  0  0  0  0  0
   -4.2351    6.4498   -4.1679 N   0  0  0  0  0  0  0  0  0  0  0  0
    1.6508   -2.9729    3.0680 C   0  0  0  0  0  0  0  0  0  0  0  0
    0.6668   -4.9449    3.9614 C   0  0  0  0  0  0  0  0  0  0  0  0
   -0.7038   -3.2827    3.0520 C   0  0  0  0  0  0  0  0  0  0  0  0
    0.8255   -6.2567    4.7031 C   0  0  0  0  0  0  0  0  0  0  0  0
    1.7320   -4.1674    3.6929 C   0  0  0  0  0  0  0  0  0  0  0  0
    0.3998   -2.5795    2.7458 C   0  0  0  0  0  0  0  0  0  0  0  0
   -0.5516   -4.4760    3.6472 C   0  0  0  0  0  0  0  0  0  0  0  0
   -2.0331   -0.5479    2.4993 C   0  0  0  0  0  0  0  0  0  0  0  0
   -2.5757   -1.7850    2.3043 C   0  0  0  0  0  0  0  0  0  0  0  0
   -1.7771    1.7182    1.7979 C   0  0  0  0  0  0  0  0  0  0  0  0
    2.7408   -1.1193    2.2180 C   0  0  0  0  0  0  0  0  0  0  0  0
    3.9172   -2.5063    3.0233 C   0  0  0  0  0  0  0  0  0  0  0  0
   -2.2886    0.4717    1.6581 C   0  0  0  0  0  0  0  0  0  0  0  0
   -0.9742    1.9473    2.8635 C   0  0  0  0  0  0  0  0  0  0  0  0
    4.0192   -0.7332    2.1285 C   0  0  0  0  0  0  0  0  0  0  0  0
   -2.0422    3.6895    0.4283 C   0  0  0  0  0  0  0  0  0  0  0  0
   -1.2624   -0.2846    3.5654 C   0  0  0  0  0  0  0  0  0  0  0  0
   -2.7270    5.0379   -1.2491 C   0  0  0  0  0  0  0  0  0  0  0  0
   -0.7437    0.9388    3.7264 C   0  0  0  0  0  0  0  0  0  0  0  0
   -3.4589    5.1566   -2.3852 C   0  0  0  0  0  0  0  0  0  0  0  0
   -2.0146    6.0366   -0.6961 C   0  0  0  0  0  0  0  0  0  0  0  0
   -1.3426    5.7628    0.4282 C   0  0  0  0  0  0  0  0  0  0  0  0
   -0.3039    3.2612    3.1969 C   0  0  0  0  0  0  0  0  0  0  0  0
    4.5789    0.5295    1.5521 C   0  0  0  0  0  0  0  0  0  0  0  0
   -3.5643    6.2954   -3.1043 C   0  0  0  0  0  0  0  0  0  0  0  0
   -4.1540    4.1151   -2.8926 C   0  0  0  0  0  0  0  0  0  0  0  0
   -4.8704    4.2590   -4.0179 C   0  0  0  0  0  0  0  0  0  0  0  0
   -4.8746    5.4570   -4.6173 C   0  0  0  0  0  0  0  0  0  0  0  0
   -2.5967   -3.6972    2.8861 H   0  0  0  0  0  0  0  0  0  0  0  0
   -2.7868    1.9774    0.1843 H   0  0  0  0  0  0  0  0  0  0  0  0
    2.7011   -4.5832    4.0030 H   0  0  0  0  0  0  0  0  0  0  0  0
    0.2405   -1.6503    2.1861 H   0  0  0  0  0  0  0  0  0  0  0  0
   -1.4438   -5.0780    3.8862 H   0  0  0  0  0  0  0  0  0  0  0  0
    1.8901   -0.5345    1.8547 H   0  0  0  0  0  0  0  0  0  0  0  0
    4.2881   -3.4119    3.5171 H   0  0  0  0  0  0  0  0  0  0  0  0
   -2.9396    0.2506    0.7933 H   0  0  0  0  0  0  0  0  0  0  0  0
   -1.0562   -1.0396    4.3418 H   0  0  0  0  0  0  0  0  0  0  0  0
   -0.1140    1.1028    4.6177 H   0  0  0  0  0  0  0  0  0  0  0  0
   -1.9439    7.0568   -1.0982 H   0  0  0  0  0  0  0  0  0  0  0  0
   -0.7388    6.5355    0.9329 H   0  0  0  0  0  0  0  0  0  0  0  0
   -1.0616    4.0505    3.4008 H   0  0  0  0  0  0  0  0  0  0  0  0
    0.3138    3.2196    4.1212 H   0  0  0  0  0  0  0  0  0  0  0  0
    0.4128    3.5513    2.3963 H   0  0  0  0  0  0  0  0  0  0  0  0
    3.8130    1.3377    1.5482 H   0  0  0  0  0  0  0  0  0  0  0  0
    5.4509    0.8878    2.1447 H   0  0  0  0  0  0  0  0  0  0  0  0
    4.9102    0.3555    0.5034 H   0  0  0  0  0  0  0  0  0  0  0  0
   -3.0534    7.2264   -2.8134 H   0  0  0  0  0  0  0  0  0  0  0  0
   -4.1700    3.1181   -2.4226 H   0  0  0  0  0  0  0  0  0  0  0  0
   -5.4416    3.4165   -4.4412 H   0  0  0  0  0  0  0  0  0  0  0  0
   -5.4509    5.6163   -5.5440 H   0  0  0  0  0  0  0  0  0  0  0  0
  1 15  1  0      
  2 15  1  0      
  3 15  1  0      
  4 20  2  0      
  5 12  1  0      
 22  5  1  0      
  5 23  1  0      
  6 14  1  0      
  6 20  1  0      
  6 40  1  0      
  7 21  1  0      
  7 27  1  0      
  7 41  1  0      
 23  8  2  0      
 26  8  1  0      
  9 27  2  0      
 29  9  1  0      
 27 10  1  0      
 33 10  2  0      
 36 11  2  0      
 11 39  1  0      
 12 16  1  0      
 12 17  2  0      
 13 15  1  0      
 16 13  2  0      
 13 18  1  0      
 14 17  1  0      
 18 14  2  0      
 16 42  1  0      
 17 43  1  0      
 18 44  1  0      
 19 20  1  0      
 19 24  1  0      
 19 28  2  0      
 24 21  2  0      
 21 25  1  0      
 26 22  2  0      
 22 45  1  0      
 23 46  1  0      
 24 47  1  0      
 25 30  2  0      
 25 34  1  0      
 26 35  1  0      
 30 28  1  0      
 28 48  1  0      
 29 31  1  0      
 32 29  2  0      
 30 49  1  0      
 31 36  1  0      
 37 31  2  0      
 33 32  1  0      
 32 50  1  0      
 33 51  1  0      
 34 52  1  0      
 34 53  1  0      
 34 54  1  0      
 35 55  1  0      
 35 56  1  0      
 35 57  1  0      
 36 58  1  0      
 38 37  1  0      
 37 59  1  0      
 38 39  2  0      
 38 60  1  0      
 39 61  1  0      
M  END
