
  Chem3D Core 14.008171522133D

113119  0  0  0  0  0  0  0  0999 V2000
    1.9639    1.0030   -3.5629 O   0  0  0  0  0  0  0  0  0  0  0  0
    4.5435    1.5252   -4.6071 O   0  0  0  0  0  0  0  0  0  0  0  0
    3.7227   -0.5038   -1.0440 O   0  0  0  0  0  0  0  0  0  0  0  0
    1.6456   -1.3150    0.3573 O   0  0  0  0  0  0  0  0  0  0  0  0
    3.0663    5.0008    0.1970 O   0  0  0  0  0  0  0  0  0  0  0  0
    4.8829    5.1296   -1.5892 O   0  0  0  0  0  0  0  0  0  0  0  0
    3.7114    2.7464    2.3617 O   0  0  0  0  0  0  0  0  0  0  0  0
   -0.9532    2.2140   -1.4247 O   0  0  0  0  0  0  0  0  0  0  0  0
    0.9320    3.0396   -3.5675 O   0  0  0  0  0  0  0  0  0  0  0  0
    2.1130   -1.6384   -2.0833 O   0  0  0  0  0  0  0  0  0  0  0  0
    4.7918    2.5838    4.3356 O   0  0  0  0  0  0  0  0  0  0  0  0
   -2.5708    2.6795   -2.9199 O   0  0  0  0  0  0  0  0  0  0  0  0
   -3.3013    2.5984    0.4088 O   0  0  0  0  0  0  0  0  0  0  0  0
   -6.4945   -0.6320    1.1243 O   0  0  0  0  0  0  0  0  0  0  0  0
   -4.6686    0.2325    0.3526 N   0  0  0  0  0  0  0  0  0  0  0  0
    2.9717    1.8135   -1.4829 C   0  0  0  0  0  0  0  0  0  0  0  0
    3.1355    1.5100   -2.9988 C   0  0  0  0  0  0  0  0  0  0  0  0
    3.8521    3.0020   -0.9138 C   0  0  0  0  0  0  0  0  0  0  0  0
    2.8867    0.5304   -0.5942 C   0  0  0  0  0  0  0  0  0  0  0  0
    1.5977    0.0796    0.1686 C   0  0  0  0  0  0  0  0  0  0  0  0
    3.8026    2.5240   -3.9510 C   0  0  0  0  0  0  0  0  0  0  0  0
    1.5681    0.6983    1.5903 C   0  0  0  0  0  0  0  0  0  0  0  0
    3.1770    3.7927    0.2569 C   0  0  0  0  0  0  0  0  0  0  0  0
    4.0767    4.0585   -2.0372 C   0  0  0  0  0  0  0  0  0  0  0  0
    1.4916    2.1999    1.2837 C   0  0  0  0  0  0  0  0  0  0  0  0
    4.3101    0.6532   -3.5217 C   0  0  0  0  0  0  0  0  0  0  0  0
    2.6243    3.1768    1.5710 C   0  0  0  0  0  0  0  0  0  0  0  0
    4.7415    3.5124   -3.2883 C   0  0  0  0  0  0  0  0  0  0  0  0
    0.2616    0.3598   -0.5384 C   0  0  0  0  0  0  0  0  0  0  0  0
    5.2332    2.5250   -0.3968 C   0  0  0  0  0  0  0  0  0  0  0  0
    0.4674    2.6434    0.5129 C   0  0  0  0  0  0  0  0  0  0  0  0
   -0.4587    1.6806   -0.2143 C   0  0  0  0  0  0  0  0  0  0  0  0
    2.7139    0.1372    2.4854 C   0  0  0  0  0  0  0  0  0  0  0  0
    0.3300    0.2844    2.4411 C   0  0  0  0  0  0  0  0  0  0  0  0
    0.9529    1.8670   -3.8663 C   0  0  0  0  0  0  0  0  0  0  0  0
    3.2685   -1.6122   -1.7141 C   0  0  0  0  0  0  0  0  0  0  0  0
    0.1574    4.1010    0.2333 C   0  0  0  0  0  0  0  0  0  0  0  0
    3.7935    2.8947    3.7192 C   0  0  0  0  0  0  0  0  0  0  0  0
    4.0964   -2.6767   -1.9417 C   0  0  0  0  0  0  0  0  0  0  0  0
   -0.1280    1.1408   -4.6412 C   0  0  0  0  0  0  0  0  0  0  0  0
   -2.2623    2.2974   -1.8087 C   0  0  0  0  0  0  0  0  0  0  0  0
    3.6709   -3.7824   -2.5842 C   0  0  0  0  0  0  0  0  0  0  0  0
    5.3764   -2.6338   -1.5231 C   0  0  0  0  0  0  0  0  0  0  0  0
   -3.3749    1.9125   -0.8271 C   0  0  0  0  0  0  0  0  0  0  0  0
    2.5542    3.4229    4.4225 C   0  0  0  0  0  0  0  0  0  0  0  0
   -3.5731    0.4031   -0.6119 C   0  0  0  0  0  0  0  0  0  0  0  0
    4.5008   -4.8160   -2.7985 C   0  0  0  0  0  0  0  0  0  0  0  0
    6.2078   -3.6660   -1.7370 C   0  0  0  0  0  0  0  0  0  0  0  0
    5.7720   -4.7614   -2.3754 C   0  0  0  0  0  0  0  0  0  0  0  0
   -3.8740   -0.2358   -1.9562 C   0  0  0  0  0  0  0  0  0  0  0  0
   -5.4459   -0.8730    0.5716 C   0  0  0  0  0  0  0  0  0  0  0  0
   -5.0874   -0.1256   -2.5275 C   0  0  0  0  0  0  0  0  0  0  0  0
   -2.9183   -0.9101   -2.6219 C   0  0  0  0  0  0  0  0  0  0  0  0
   -5.1821   -2.1158    0.0712 C   0  0  0  0  0  0  0  0  0  0  0  0
   -5.3460   -0.6889   -3.7178 C   0  0  0  0  0  0  0  0  0  0  0  0
   -3.1675   -1.4748   -3.8131 C   0  0  0  0  0  0  0  0  0  0  0  0
   -4.3858   -1.3676   -4.3631 C   0  0  0  0  0  0  0  0  0  0  0  0
   -3.9311   -2.5722   -0.1282 C   0  0  0  0  0  0  0  0  0  0  0  0
   -6.2006   -2.9543   -0.2104 C   0  0  0  0  0  0  0  0  0  0  0  0
   -3.7017   -3.7959   -0.6306 C   0  0  0  0  0  0  0  0  0  0  0  0
   -5.9801   -4.1792   -0.7141 C   0  0  0  0  0  0  0  0  0  0  0  0
   -4.7277   -4.6029   -0.9340 C   0  0  0  0  0  0  0  0  0  0  0  0
    1.9553    2.2677   -1.4295 H   0  0  0  0  0  0  0  0  0  0  0  0
    1.3195   -1.7577   -0.4317 H   0  0  0  0  0  0  0  0  0  0  0  0
    4.3737    5.7153   -1.0267 H   0  0  0  0  0  0  0  0  0  0  0  0
   -3.9257    3.3248    0.4473 H   0  0  0  0  0  0  0  0  0  0  0  0
   -4.9644    1.0662    0.8600 H   0  0  0  0  0  0  0  0  0  0  0  0
    3.4937    0.8944    0.2575 H   0  0  0  0  0  0  0  0  0  0  0  0
    3.1323    3.0165   -4.6880 H   0  0  0  0  0  0  0  0  0  0  0  0
    3.0998    4.5050   -2.3412 H   0  0  0  0  0  0  0  0  0  0  0  0
    5.2164    0.6359   -2.8790 H   0  0  0  0  0  0  0  0  0  0  0  0
    4.0495   -0.3538   -3.9130 H   0  0  0  0  0  0  0  0  0  0  0  0
    2.1557    4.0189    2.1251 H   0  0  0  0  0  0  0  0  0  0  0  0
    4.9647    4.3338   -4.0103 H   0  0  0  0  0  0  0  0  0  0  0  0
    5.7256    3.0621   -3.0315 H   0  0  0  0  0  0  0  0  0  0  0  0
    0.4250    0.2626   -1.6313 H   0  0  0  0  0  0  0  0  0  0  0  0
   -0.4529   -0.4660   -0.3103 H   0  0  0  0  0  0  0  0  0  0  0  0
    5.7579    1.8854   -1.1365 H   0  0  0  0  0  0  0  0  0  0  0  0
    5.9103    3.3713   -0.1506 H   0  0  0  0  0  0  0  0  0  0  0  0
    5.1964    1.9318    0.5391 H   0  0  0  0  0  0  0  0  0  0  0  0
   -1.3036    1.5330    0.4783 H   0  0  0  0  0  0  0  0  0  0  0  0
    2.6872    0.5705    3.5091 H   0  0  0  0  0  0  0  0  0  0  0  0
    2.6130   -0.9605    2.6388 H   0  0  0  0  0  0  0  0  0  0  0  0
    3.7495    0.2390    2.1055 H   0  0  0  0  0  0  0  0  0  0  0  0
    0.3265   -0.8025    2.6803 H   0  0  0  0  0  0  0  0  0  0  0  0
    0.3173    0.8357    3.4090 H   0  0  0  0  0  0  0  0  0  0  0  0
   -0.6639    0.4604    1.9963 H   0  0  0  0  0  0  0  0  0  0  0  0
    0.5798    4.8138    0.9695 H   0  0  0  0  0  0  0  0  0  0  0  0
    0.5010    4.3951   -0.7842 H   0  0  0  0  0  0  0  0  0  0  0  0
   -0.9407    4.2729    0.2948 H   0  0  0  0  0  0  0  0  0  0  0  0
   -0.6342    0.3971   -3.9862 H   0  0  0  0  0  0  0  0  0  0  0  0
   -0.8933    1.8555   -5.0176 H   0  0  0  0  0  0  0  0  0  0  0  0
    0.3049    0.6128   -5.5205 H   0  0  0  0  0  0  0  0  0  0  0  0
    2.6380   -3.8849   -2.9560 H   0  0  0  0  0  0  0  0  0  0  0  0
    5.7872   -1.7562   -0.9963 H   0  0  0  0  0  0  0  0  0  0  0  0
   -4.3240    2.3026   -1.2710 H   0  0  0  0  0  0  0  0  0  0  0  0
    2.4468    4.5204    4.2705 H   0  0  0  0  0  0  0  0  0  0  0  0
    1.6311    2.8903    4.1036 H   0  0  0  0  0  0  0  0  0  0  0  0
    2.6421    3.2599    5.5205 H   0  0  0  0  0  0  0  0  0  0  0  0
   -2.6478   -0.0020   -0.1552 H   0  0  0  0  0  0  0  0  0  0  0  0
    4.1388   -5.7153   -3.3252 H   0  0  0  0  0  0  0  0  0  0  0  0
    7.2534   -3.6150   -1.3887 H   0  0  0  0  0  0  0  0  0  0  0  0
    6.4538   -5.6099   -2.5521 H   0  0  0  0  0  0  0  0  0  0  0  0
   -5.8903    0.4332   -2.0193 H   0  0  0  0  0  0  0  0  0  0  0  0
   -1.9093   -1.0081   -2.1903 H   0  0  0  0  0  0  0  0  0  0  0  0
   -6.3481   -0.5916   -4.1679 H   0  0  0  0  0  0  0  0  0  0  0  0
   -2.3703   -2.0254   -4.3401 H   0  0  0  0  0  0  0  0  0  0  0  0
   -4.5950   -1.8296   -5.3422 H   0  0  0  0  0  0  0  0  0  0  0  0
   -3.0449   -1.9863    0.1501 H   0  0  0  0  0  0  0  0  0  0  0  0
   -7.2534   -2.6589   -0.0635 H   0  0  0  0  0  0  0  0  0  0  0  0
   -2.6666   -4.1475   -0.7795 H   0  0  0  0  0  0  0  0  0  0  0  0
   -6.8303   -4.8409   -0.9516 H   0  0  0  0  0  0  0  0  0  0  0  0
   -4.5431   -5.6097   -1.3437 H   0  0  0  0  0  0  0  0  0  0  0  0
 17  1  1  0      
  1 35  1  0      
 21  2  1  0      
  2 26  1  0      
 19  3  1  0      
  3 36  1  0      
 20  4  1  0      
  4 64  1  0      
  5 23  2  0      
 24  6  1  0      
  6 65  1  0      
 27  7  1  0      
  7 38  1  0      
 32  8  1  0      
  8 41  1  0      
  9 35  2  0      
 10 36  2  0      
 11 38  2  0      
 12 41  2  0      
 44 13  1  0      
 13 66  1  0      
 14 51  2  0      
 46 15  1  0      
 15 51  1  0      
 15 67  1  0      
 16 17  1  0      
 16 18  1  0      
 16 19  1  0      
 16 63  1  0      
 17 21  1  0      
 17 26  1  0      
 18 23  1  0      
 18 24  1  0      
 18 30  1  0      
 19 20  1  0      
 19 68  1  0      
 20 22  1  0      
 20 29  1  0      
 21 28  1  0      
 21 69  1  0      
 22 25  1  0      
 22 33  1  0      
 22 34  1  0      
 23 27  1  0      
 24 28  1  0      
 24 70  1  0      
 25 27  1  0      
 25 31  2  0      
 26 71  1  0      
 26 72  1  0      
 27 73  1  0      
 28 74  1  0      
 28 75  1  0      
 29 32  1  0      
 29 76  1  0      
 29 77  1  0      
 30 78  1  0      
 30 79  1  0      
 30 80  1  0      
 31 32  1  0      
 31 37  1  0      
 32 81  1  0      
 33 82  1  0      
 33 83  1  0      
 33 84  1  0      
 34 85  1  0      
 34 86  1  0      
 34 87  1  0      
 35 40  1  0      
 36 39  1  0      
 37 88  1  0      
 37 89  1  0      
 37 90  1  0      
 38 45  1  0      
 39 42  1  0      
 39 43  2  0      
 40 91  1  0      
 40 92  1  0      
 40 93  1  0      
 41 44  1  0      
 42 47  2  0      
 42 94  1  0      
 48 43  1  0      
 43 95  1  0      
 44 46  1  0      
 44 96  1  0      
 45 97  1  0      
 45 98  1  0      
 45 99  1  0      
 46 50  1  0      
 46100  1  0      
 47 49  1  0      
 47101  1  0      
 49 48  2  0      
 48102  1  0      
 49103  1  0      
 50 52  1  0      
 50 53  2  0      
 51 54  1  0      
 52 55  2  0      
 52104  1  0      
 56 53  1  0      
 53105  1  0      
 54 58  1  0      
 54 59  2  0      
 55 57  1  0      
 55106  1  0      
 57 56  2  0      
 56107  1  0      
 57108  1  0      
 58 60  2  0      
 58109  1  0      
 61 59  1  0      
 59110  1  0      
 60 62  1  0      
 60111  1  0      
 62 61  2  0      
 61112  1  0      
 62113  1  0      
M  END
