
  Chem3D Core 15.010061615373D

  0  0  0     0  0              0 V3000
M  V30 BEGIN CTAB
M  V30 COUNTS 83 84 0 0 0
M  V30 BEGIN ATOM
M  V30 1 S -1.170811 -0.975354 3.134974 0
M  V30 2 S -3.267644 0.195128 1.477338 0
M  V30 3 O 3.570289 -4.142849 1.760188 0
M  V30 4 O -3.595023 5.461258 -1.083387 0
M  V30 5 C 2.623494 -2.110482 2.404944 0
M  V30 6 C -3.265331 3.156103 -1.251918 0
M  V30 7 C 1.240912 -4.006179 2.077071 0
M  V30 8 C -3.697736 4.138619 0.859764 0
M  V30 9 C 2.468121 -3.420585 2.078352 0
M  V30 10 C -3.513108 4.248765 -0.482546 0
M  V30 11 C 0.308067 -1.942460 2.716755 0
M  V30 12 C -3.368618 1.817166 0.666932 0
M  V30 13 C -1.450702 -0.046071 1.577469 0
M  V30 14 C 3.966797 -1.338605 2.432726 0
M  V30 15 C -3.028813 3.164557 -2.783180 0
M  V30 16 C 0.902234 -5.481320 1.732304 0
M  V30 17 C -3.973402 5.286972 1.866897 0
M  V30 18 C 1.527265 -1.399802 2.730288 0
M  V30 19 C -3.208495 1.952179 -0.651194 0
M  V30 20 C 0.184855 -3.233926 2.399687 0
M  V30 21 C -3.617006 2.906301 1.398801 0
M  V30 22 C -0.682349 1.288543 1.658515 0
M  V30 23 C -0.997852 -0.835596 0.332583 0
M  V30 24 C 5.257411 -2.109438 2.066290 0
M  V30 25 C 3.884244 -0.164599 1.424214 0
M  V30 26 C 4.205643 -0.781620 3.857795 0
M  V30 27 C -3.054940 4.526784 -3.516980 0
M  V30 28 C -1.626710 2.569796 -3.071773 0
M  V30 29 C -4.112021 2.297321 -3.469520 0
M  V30 30 C 2.051750 -6.444299 1.353121 0
M  V30 31 C 0.210991 -6.137840 2.954764 0
M  V30 32 C -0.062676 -5.500497 0.518885 0
M  V30 33 C -4.074926 6.737009 1.337297 0
M  V30 34 C -5.319390 5.019437 2.586948 0
M  V30 35 C -2.824487 5.316174 2.908221 0
M  V30 36 H 3.360790 -5.068033 1.605988 0
M  V30 37 H -3.943682 6.128374 -0.484887 0
M  V30 38 H 1.602330 -0.340908 3.014067 0
M  V30 39 H -3.021463 1.036455 -1.229747 0
M  V30 40 H -0.835395 -3.644949 2.409912 0
M  V30 41 H -3.748717 2.750957 2.479942 0
M  V30 42 H -0.777994 1.887668 0.726072 0
M  V30 43 H 0.410967 1.128300 1.781641 0
M  V30 44 H -1.020580 1.920464 2.511282 0
M  V30 45 H 0.104539 -0.984051 0.305430 0
M  V30 46 H -1.480549 -1.837618 0.267899 0
M  V30 47 H -1.239782 -0.291948 -0.607294 0
M  V30 48 H 6.152744 -1.448814 2.113277 0
M  V30 49 H 5.472831 -2.937492 2.777887 0
M  V30 50 H 5.237854 -2.495554 1.022767 0
M  V30 51 H 4.836380 0.411356 1.385326 0
M  V30 52 H 3.094958 0.578572 1.668858 0
M  V30 53 H 3.678220 -0.541899 0.396372 0
M  V30 54 H 4.231154 -1.608159 4.604214 0
M  V30 55 H 5.173631 -0.235920 3.928052 0
M  V30 56 H 3.430395 -0.057008 4.187652 0
M  V30 57 H -2.844881 4.407773 -4.604214 0
M  V30 58 H -4.053872 5.014851 -3.472400 0
M  V30 59 H -2.270782 5.222111 -3.142527 0
M  V30 60 H -1.392494 2.577080 -4.160233 0
M  V30 61 H -1.514708 1.511876 -2.750741 0
M  V30 62 H -0.835563 3.159670 -2.554746 0
M  V30 63 H -4.089472 1.231245 -3.156310 0
M  V30 64 H -5.130486 2.690124 -3.247096 0
M  V30 65 H -3.990114 2.289891 -4.576280 0
M  V30 66 H 1.671804 -7.465421 1.122399 0
M  V30 67 H 2.584045 -6.119282 0.430533 0
M  V30 68 H 2.772000 -6.589702 2.190174 0
M  V30 69 H -0.033746 -7.207451 2.765564 0
M  V30 70 H -0.752350 -5.660266 3.234526 0
M  V30 71 H 0.874198 -6.099715 3.849040 0
M  V30 72 H -1.034099 -4.995691 0.709305 0
M  V30 73 H 0.403860 -5.001820 -0.361272 0
M  V30 74 H -0.323887 -6.539800 0.216420 0
M  V30 75 H -4.230731 7.465421 2.165205 0
M  V30 76 H -3.138809 7.065604 0.831490 0
M  V30 77 H -4.952579 6.880599 0.666934 0
M  V30 78 H -5.570627 5.832170 3.305358 0
M  V30 79 H -5.329483 4.082562 3.184275 0
M  V30 80 H -6.152744 4.954352 1.850444 0
M  V30 81 H -2.739377 4.385561 3.509414 0
M  V30 82 H -1.843387 5.478043 2.405709 0
M  V30 83 H -2.960363 6.135143 3.650202 0
M  V30 END ATOM
M  V30 BEGIN BOND
M  V30 1 1 1 11
M  V30 2 1 1 13
M  V30 3 1 2 12
M  V30 4 1 2 13
M  V30 5 1 3 9
M  V30 6 1 3 36
M  V30 7 1 4 10
M  V30 8 1 4 37
M  V30 9 1 5 9
M  V30 10 1 5 14
M  V30 11 2 5 18
M  V30 12 1 6 10
M  V30 13 1 6 15
M  V30 14 2 6 19
M  V30 15 2 9 7
M  V30 16 1 7 16
M  V30 17 1 7 20
M  V30 18 2 10 8
M  V30 19 1 8 17
M  V30 20 1 8 21
M  V30 21 1 11 18
M  V30 22 2 20 11
M  V30 23 1 12 19
M  V30 24 2 21 12
M  V30 25 1 13 22
M  V30 26 1 13 23
M  V30 27 1 14 24
M  V30 28 1 14 25
M  V30 29 1 14 26
M  V30 30 1 15 27
M  V30 31 1 15 28
M  V30 32 1 15 29
M  V30 33 1 16 30
M  V30 34 1 16 31
M  V30 35 1 16 32
M  V30 36 1 17 33
M  V30 37 1 17 34
M  V30 38 1 17 35
M  V30 39 1 18 38
M  V30 40 1 19 39
M  V30 41 1 20 40
M  V30 42 1 21 41
M  V30 43 1 22 42
M  V30 44 1 22 43
M  V30 45 1 22 44
M  V30 46 1 23 45
M  V30 47 1 23 46
M  V30 48 1 23 47
M  V30 49 1 24 48
M  V30 50 1 24 49
M  V30 51 1 24 50
M  V30 52 1 25 51
M  V30 53 1 25 52
M  V30 54 1 25 53
M  V30 55 1 26 54
M  V30 56 1 26 55
M  V30 57 1 26 56
M  V30 58 1 27 57
M  V30 59 1 27 58
M  V30 60 1 27 59
M  V30 61 1 28 60
M  V30 62 1 28 61
M  V30 63 1 28 62
M  V30 64 1 29 63
M  V30 65 1 29 64
M  V30 66 1 29 65
M  V30 67 1 30 66
M  V30 68 1 30 67
M  V30 69 1 30 68
M  V30 70 1 31 69
M  V30 71 1 31 70
M  V30 72 1 31 71
M  V30 73 1 32 72
M  V30 74 1 32 73
M  V30 75 1 32 74
M  V30 76 1 33 75
M  V30 77 1 33 76
M  V30 78 1 33 77
M  V30 79 1 34 78
M  V30 80 1 34 79
M  V30 81 1 34 80
M  V30 82 1 35 81
M  V30 83 1 35 82
M  V30 84 1 35 83
M  V30 END BOND
M  V30 END CTAB
M  END
