
  Chem3D Core 14.008181516253D

144147  0  0  0  0  0  0  0  0999 V2000
   -4.5922    7.6894   -2.3632 C   0  0  0  0  0  0  0  0  0  0  0  0
   -5.0457    6.9184   -3.4544 O   0  0  0  0  0  0  0  0  0  0  0  0
   -5.7328    5.7510   -3.0879 C   0  0  0  0  0  0  0  0  0  0  0  0
   -4.8123    4.6944   -2.4692 C   0  0  0  0  0  0  0  0  0  0  0  0
   -5.5519    3.3691   -2.1994 C   0  0  0  0  0  0  0  0  0  0  0  0
   -4.6313    2.2712   -1.6222 C   0  0  0  0  0  0  0  0  0  0  0  0
   -3.9302    2.5857   -0.2816 C   0  0  0  0  0  0  0  0  0  0  0  0
   -1.3196    3.7126    3.1088 C   0  0  0  0  0  0  0  0  0  0  0  0
   -2.9743    1.4427    0.1457 C   0  0  0  0  0  0  0  0  0  0  0  0
   -3.7223    0.2424    0.7473 C   0  0  0  0  0  0  0  0  0  0  0  0
   -2.9420   -1.0571    0.9188 C   0  0  0  0  0  0  0  0  0  0  0  0
   -1.7587   -1.1162    0.6715 O   0  0  0  0  0  0  0  0  0  0  0  0
   -3.7376   -2.2847    1.3722 C   0  0  0  0  0  0  0  0  0  0  0  0
   -4.9117   -1.9971    2.3238 C   0  0  0  0  0  0  0  0  0  0  0  0
   -2.9161   -3.4158    1.9519 C   0  0  0  0  0  0  0  0  0  0  0  0
   -2.0397   -3.3542    2.9699 C   0  0  0  0  0  0  0  0  0  0  0  0
   -1.6640   -2.0882    3.7015 C   0  0  0  0  0  0  0  0  0  0  0  0
   -1.3970   -4.6205    3.5034 C   0  0  0  0  0  0  0  0  0  0  0  0
   -2.4214   -5.4859    3.9721 O   0  0  0  0  0  0  0  0  0  0  0  0
   -0.5074   -5.3765    2.5130 C   0  0  0  0  0  0  0  0  0  0  0  0
    0.4271   -4.4965    1.9275 O   0  0  0  0  0  0  0  0  0  0  0  0
    0.2010   -4.2226    0.5633 C   0  0  0  0  0  0  0  0  0  0  0  0
    0.1763   -6.5400    3.2624 C   0  0  0  0  0  0  0  0  0  0  0  0
   -0.5326   -7.3828    3.7670 O   0  0  0  0  0  0  0  0  0  0  0  0
    1.7003   -6.6319    3.4032 C   0  0  0  0  0  0  0  0  0  0  0  0
    2.2599   -5.3558    4.0554 C   0  0  0  0  0  0  0  0  0  0  0  0
    2.3187   -7.1436    2.0830 C   0  0  0  0  0  0  0  0  0  0  0  0
    3.8231   -6.9252    1.8144 C   0  0  0  0  0  0  0  0  0  0  0  0
    4.7313   -7.5552    2.8789 C   0  0  0  0  0  0  0  0  0  0  0  0
    4.0564   -5.4664    1.4954 C   0  0  0  0  0  0  0  0  0  0  0  0
    4.7730   -4.5850    2.2120 C   0  0  0  0  0  0  0  0  0  0  0  0
    4.7611   -3.2783    1.8964 C   0  0  0  0  0  0  0  0  0  0  0  0
    5.3402   -2.3196    2.6414 C   0  0  0  0  0  0  0  0  0  0  0  0
    5.1648   -1.0212    2.3403 C   0  0  0  0  0  0  0  0  0  0  0  0
    5.5824    0.0597    3.0266 C   0  0  0  0  0  0  0  0  0  0  0  0
    6.3847    0.0240    4.3065 C   0  0  0  0  0  0  0  0  0  0  0  0
    5.1329    1.4410    2.5645 C   0  0  0  0  0  0  0  0  0  0  0  0
    6.2952    2.4306    2.3807 C   0  0  0  0  0  0  0  0  0  0  0  0
    5.9635    3.5508    1.3809 C   0  0  0  0  0  0  0  0  0  0  0  0
    6.9717    4.6942    1.4126 C   0  0  0  0  0  0  0  0  0  0  0  0
    6.5432    5.7711    0.4093 C   0  0  0  0  0  0  0  0  0  0  0  0
    5.0929    6.2068    0.6905 C   0  0  0  0  0  0  0  0  0  0  0  0
    4.6426    7.2247   -0.3730 C   0  0  0  0  0  0  0  0  0  0  0  0
    4.1630    4.9959    0.7844 C   0  0  0  0  0  0  0  0  0  0  0  0
    4.0664    4.3709   -0.4886 O   0  0  0  0  0  0  0  0  0  0  0  0
    4.6864    4.0317    1.6686 O   0  0  0  0  0  0  0  0  0  0  0  0
    2.7312    5.3166    1.2965 C   0  0  0  0  0  0  0  0  0  0  0  0
    2.5257    6.3948    1.8153 O   0  0  0  0  0  0  0  0  0  0  0  0
    1.7873    4.3426    1.1750 C   0  0  0  0  0  0  0  0  0  0  0  0
    2.1176    3.2577    0.7428 O   0  0  0  0  0  0  0  0  0  0  0  0
    0.4884    4.4944    1.6039 N   0  0  0  0  0  0  0  0  0  0  0  0
   -0.2247    5.7618    1.7178 C   0  0  0  0  0  0  0  0  0  0  0  0
   -0.4425    6.0778    3.2059 C   0  0  0  0  0  0  0  0  0  0  0  0
   -0.6782    4.7822    4.0057 C   0  0  0  0  0  0  0  0  0  0  0  0
   -0.3603    3.3448    1.9520 C   0  0  0  0  0  0  0  0  0  0  0  0
   -1.1013    2.8004    0.7257 C   0  0  0  0  0  0  0  0  0  0  0  0
   -0.8808    3.1631   -0.4093 O   0  0  0  0  0  0  0  0  0  0  0  0
   -2.0621    1.9076    1.1031 O   0  0  0  0  0  0  0  0  0  0  0  0
    4.1971    1.9935    3.4711 O   0  0  0  0  0  0  0  0  0  0  0  0
    2.9862    1.2698    3.5327 C   0  0  0  0  0  0  0  0  0  0  0  0
   -6.2215    2.8639   -3.4930 C   0  0  0  0  0  0  0  0  0  0  0  0
   -7.1511    3.9265   -4.0940 C   0  0  0  0  0  0  0  0  0  0  0  0
   -6.3714    5.2090   -4.3588 C   0  0  0  0  0  0  0  0  0  0  0  0
   -7.2354    6.1948   -4.8726 O   0  0  0  0  0  0  0  0  0  0  0  0
   -4.9301    2.9643    0.8256 C   0  0  0  0  0  0  0  0  0  0  0  0
   -6.5459    6.0150   -2.3702 H   0  0  0  0  0  0  0  0  0  0  0  0
   -6.3719    3.5679   -1.4660 H   0  0  0  0  0  0  0  0  0  0  0  0
   -3.3085    3.4950   -0.4636 H   0  0  0  0  0  0  0  0  0  0  0  0
   -2.4015    1.0868   -0.7436 H   0  0  0  0  0  0  0  0  0  0  0  0
   -4.1721   -2.6596    0.4098 H   0  0  0  0  0  0  0  0  0  0  0  0
   -3.1275   -4.4120    1.5254 H   0  0  0  0  0  0  0  0  0  0  0  0
   -0.7816   -4.3673    4.3983 H   0  0  0  0  0  0  0  0  0  0  0  0
   -1.1297   -5.8521    1.7201 H   0  0  0  0  0  0  0  0  0  0  0  0
    1.8943   -7.4338    4.1637 H   0  0  0  0  0  0  0  0  0  0  0  0
    4.0705   -7.4610    0.8590 H   0  0  0  0  0  0  0  0  0  0  0  0
    3.5013   -5.1058    0.6097 H   0  0  0  0  0  0  0  0  0  0  0  0
    5.3135   -4.9258    3.1087 H   0  0  0  0  0  0  0  0  0  0  0  0
    4.1818   -2.9700    1.0075 H   0  0  0  0  0  0  0  0  0  0  0  0
    5.9045   -2.6199    3.5370 H   0  0  0  0  0  0  0  0  0  0  0  0
    4.5606   -0.8058    1.4410 H   0  0  0  0  0  0  0  0  0  0  0  0
    4.6357    1.3600    1.5685 H   0  0  0  0  0  0  0  0  0  0  0  0
    5.9515    3.0896    0.3639 H   0  0  0  0  0  0  0  0  0  0  0  0
    5.1034    6.7186    1.6859 H   0  0  0  0  0  0  0  0  0  0  0  0
    0.2896    2.5166    2.3277 H   0  0  0  0  0  0  0  0  0  0  0  0
   -5.5903    5.0281   -5.1341 H   0  0  0  0  0  0  0  0  0  0  0  0
   -3.7651    7.1725   -1.8313 H   0  0  0  0  0  0  0  0  0  0  0  0
   -4.1930    8.6466   -2.7671 H   0  0  0  0  0  0  0  0  0  0  0  0
   -5.4302    7.9212   -1.6697 H   0  0  0  0  0  0  0  0  0  0  0  0
   -3.9475    4.5055   -3.1473 H   0  0  0  0  0  0  0  0  0  0  0  0
   -4.4093    5.0817   -1.5068 H   0  0  0  0  0  0  0  0  0  0  0  0
   -5.2403    1.3461   -1.4986 H   0  0  0  0  0  0  0  0  0  0  0  0
   -3.8519    2.0389   -2.3867 H   0  0  0  0  0  0  0  0  0  0  0  0
   -1.5773    2.8057    3.7062 H   0  0  0  0  0  0  0  0  0  0  0  0
   -2.2808    4.1213    2.7165 H   0  0  0  0  0  0  0  0  0  0  0  0
   -4.1046    0.5306    1.7539 H   0  0  0  0  0  0  0  0  0  0  0  0
   -4.5916   -0.0128    0.0995 H   0  0  0  0  0  0  0  0  0  0  0  0
   -5.6683   -1.3168    1.8730 H   0  0  0  0  0  0  0  0  0  0  0  0
   -5.4538   -2.9366    2.5796 H   0  0  0  0  0  0  0  0  0  0  0  0
   -4.5657   -1.5423    3.2789 H   0  0  0  0  0  0  0  0  0  0  0  0
   -1.9051   -2.1874    4.7840 H   0  0  0  0  0  0  0  0  0  0  0  0
   -0.5707   -1.9028    3.5963 H   0  0  0  0  0  0  0  0  0  0  0  0
   -2.1909   -1.1807    3.3420 H   0  0  0  0  0  0  0  0  0  0  0  0
   -2.0474   -6.3148    4.2800 H   0  0  0  0  0  0  0  0  0  0  0  0
    0.9721   -3.4919    0.2313 H   0  0  0  0  0  0  0  0  0  0  0  0
    0.3091   -5.1521   -0.0385 H   0  0  0  0  0  0  0  0  0  0  0  0
   -0.8031   -3.7753    0.4114 H   0  0  0  0  0  0  0  0  0  0  0  0
    3.2783   -5.5041    4.4731 H   0  0  0  0  0  0  0  0  0  0  0  0
    2.3139   -4.4860    3.3697 H   0  0  0  0  0  0  0  0  0  0  0  0
    1.6263   -5.0481    4.9187 H   0  0  0  0  0  0  0  0  0  0  0  0
    2.1118   -8.2404    2.0176 H   0  0  0  0  0  0  0  0  0  0  0  0
    1.7545   -6.7091    1.2251 H   0  0  0  0  0  0  0  0  0  0  0  0
    4.5893   -7.1174    3.8889 H   0  0  0  0  0  0  0  0  0  0  0  0
    4.5272   -8.6466    2.9721 H   0  0  0  0  0  0  0  0  0  0  0  0
    5.8063   -7.4419    2.6085 H   0  0  0  0  0  0  0  0  0  0  0  0
    5.8081    0.4946    5.1341 H   0  0  0  0  0  0  0  0  0  0  0  0
    6.6659   -0.9932    4.6475 H   0  0  0  0  0  0  0  0  0  0  0  0
    7.3367    0.5863    4.1830 H   0  0  0  0  0  0  0  0  0  0  0  0
    6.5727    2.8645    3.3697 H   0  0  0  0  0  0  0  0  0  0  0  0
    7.1929    1.8892    1.9959 H   0  0  0  0  0  0  0  0  0  0  0  0
    7.0157    5.1326    2.4375 H   0  0  0  0  0  0  0  0  0  0  0  0
    7.9919    4.3176    1.1639 H   0  0  0  0  0  0  0  0  0  0  0  0
    7.2333    6.6457    0.4718 H   0  0  0  0  0  0  0  0  0  0  0  0
    6.6248    5.3649   -0.6263 H   0  0  0  0  0  0  0  0  0  0  0  0
    3.6076    7.5915   -0.1960 H   0  0  0  0  0  0  0  0  0  0  0  0
    5.3091    8.1173   -0.3765 H   0  0  0  0  0  0  0  0  0  0  0  0
    4.6690    6.7851   -1.3953 H   0  0  0  0  0  0  0  0  0  0  0  0
    3.6861    3.4959   -0.3859 H   0  0  0  0  0  0  0  0  0  0  0  0
    0.2377    6.5961    1.1496 H   0  0  0  0  0  0  0  0  0  0  0  0
   -1.2156    5.6500    1.2164 H   0  0  0  0  0  0  0  0  0  0  0  0
    0.4352    6.6192    3.6304 H   0  0  0  0  0  0  0  0  0  0  0  0
   -1.3201    6.7605    3.3054 H   0  0  0  0  0  0  0  0  0  0  0  0
   -1.3135    4.9889    4.8991 H   0  0  0  0  0  0  0  0  0  0  0  0
    0.2950    4.3848    4.3831 H   0  0  0  0  0  0  0  0  0  0  0  0
    2.2837    1.8344    4.1859 H   0  0  0  0  0  0  0  0  0  0  0  0
    2.5312    1.1777    2.5224 H   0  0  0  0  0  0  0  0  0  0  0  0
    3.1524    0.2659    3.9805 H   0  0  0  0  0  0  0  0  0  0  0  0
   -5.4369    2.5971   -4.2400 H   0  0  0  0  0  0  0  0  0  0  0  0
   -6.8078    1.9367   -3.2869 H   0  0  0  0  0  0  0  0  0  0  0  0
   -7.5991    3.5494   -5.0441 H   0  0  0  0  0  0  0  0  0  0  0  0
   -7.9919    4.1325   -3.3902 H   0  0  0  0  0  0  0  0  0  0  0  0
   -6.7293    7.0076   -4.9649 H   0  0  0  0  0  0  0  0  0  0  0  0
   -5.7230    2.1925    0.9440 H   0  0  0  0  0  0  0  0  0  0  0  0
   -4.4228    3.0925    1.8080 H   0  0  0  0  0  0  0  0  0  0  0  0
   -5.4382    3.9310    0.6112 H   0  0  0  0  0  0  0  0  0  0  0  0
  1  2  1  0      
 86  1  1  0      
 87  1  1  0      
 88  1  1  0      
  3  2  1  0      
  3  4  1  0      
  3 63  1  0      
 66  3  1  0      
  4  5  1  0      
 89  4  1  0      
 90  4  1  0      
  5  6  1  0      
  5 61  1  0      
 67  5  1  0      
  6  7  1  0      
 91  6  1  0      
 92  6  1  0      
  9  7  1  0      
  7 65  1  0      
 68  7  1  0      
 54  8  1  0      
  8 55  1  0      
 93  8  1  0      
 94  8  1  0      
  9 10  1  0      
  9 58  1  0      
 69  9  1  0      
 10 11  1  0      
 95 10  1  0      
 96 10  1  0      
 11 12  2  0      
 11 13  1  0      
 13 14  1  0      
 13 15  1  0      
 70 13  1  0      
 97 14  1  0      
 98 14  1  0      
 99 14  1  0      
 15 16  2  0      
 71 15  1  0      
 16 17  1  0      
 16 18  1  0      
100 17  1  0      
101 17  1  0      
102 17  1  0      
 18 19  1  0      
 18 20  1  0      
 72 18  1  0      
103 19  1  0      
 20 21  1  0      
 20 23  1  0      
 73 20  1  0      
 21 22  1  0      
104 22  1  0      
105 22  1  0      
106 22  1  0      
 23 24  2  0      
 23 25  1  0      
 25 26  1  0      
 25 27  1  0      
 74 25  1  0      
107 26  1  0      
108 26  1  0      
109 26  1  0      
 27 28  1  0      
110 27  1  0      
111 27  1  0      
 28 29  1  0      
 28 30  1  0      
 75 28  1  0      
112 29  1  0      
113 29  1  0      
114 29  1  0      
 30 31  2  0      
 76 30  1  0      
 31 32  1  0      
 77 31  1  0      
 32 33  2  0      
 78 32  1  0      
 33 34  1  0      
 79 33  1  0      
 34 35  2  0      
 80 34  1  0      
 35 36  1  0      
 35 37  1  0      
115 36  1  0      
116 36  1  0      
117 36  1  0      
 37 38  1  0      
 37 59  1  0      
 81 37  1  0      
 39 38  1  0      
118 38  1  0      
119 38  1  0      
 39 40  1  0      
 39 46  1  0      
 82 39  1  0      
 40 41  1  0      
120 40  1  0      
121 40  1  0      
 41 42  1  0      
122 41  1  0      
123 41  1  0      
 42 43  1  0      
 42 44  1  0      
 83 42  1  0      
124 43  1  0      
125 43  1  0      
126 43  1  0      
 44 45  1  0      
 44 46  1  0      
 44 47  1  0      
127 45  1  0      
 47 48  2  0      
 47 49  1  0      
 49 50  2  0      
 49 51  1  0      
 51 52  1  0      
 55 51  1  0      
 52 53  1  0      
128 52  1  0      
129 52  1  0      
 53 54  1  0      
130 53  1  0      
131 53  1  0      
132 54  1  0      
133 54  1  0      
 55 56  1  0      
 84 55  1  0      
 56 57  2  0      
 56 58  1  0      
 59 60  1  0      
134 60  1  0      
135 60  1  0      
136 60  1  0      
 61 62  1  0      
137 61  1  0      
138 61  1  0      
 62 63  1  0      
139 62  1  0      
140 62  1  0      
 63 64  1  0      
 85 63  1  0      
141 64  1  0      
142 65  1  0      
143 65  1  0      
144 65  1  0      
M  END
