
  Chem3D Core 14.008171522133D

 53 55  0  0  0  0  0  0  0  0999 V2000
    1.7616   -1.5113    3.5489 O   0  0  0  0  0  0  0  0  0  0  0  0
    1.4514   -0.3602    3.3795 C   0  0  0  0  0  0  0  0  0  0  0  0
    1.7185    0.5809    4.3067 N   0  0  0  0  0  0  0  0  0  0  0  0
    1.3148    1.8625    4.4097 C   0  0  0  0  0  0  0  0  0  0  0  0
    0.2063    2.4323    3.8717 C   0  0  0  0  0  0  0  0  0  0  0  0
   -0.7541    1.7854    3.1517 C   0  0  0  0  0  0  0  0  0  0  0  0
   -0.5581    0.6818    2.3868 C   0  0  0  0  0  0  0  0  0  0  0  0
    0.8403    0.1819    2.1116 C   0  0  0  0  0  0  0  0  0  0  0  0
    2.1278    2.5556    5.2324 C   0  0  0  0  0  0  0  0  0  0  0  0
    1.9261    3.8496    5.5042 C   0  0  0  0  0  0  0  0  0  0  0  0
    0.8733    4.4526    4.9448 C   0  0  0  0  0  0  0  0  0  0  0  0
    0.0440    3.7457    4.1628 C   0  0  0  0  0  0  0  0  0  0  0  0
   -2.0339    2.2237    3.2290 C   0  0  0  0  0  0  0  0  0  0  0  0
   -3.0686    1.6243    2.6228 C   0  0  0  0  0  0  0  0  0  0  0  0
   -2.8543    0.5239    1.8973 C   0  0  0  0  0  0  0  0  0  0  0  0
   -1.6003    0.0709    1.7875 C   0  0  0  0  0  0  0  0  0  0  0  0
    0.9037   -0.8251    1.0469 N   0  0  0  0  0  0  0  0  0  0  0  0
    2.0421   -1.0823    0.3350 C   0  0  0  0  0  0  0  0  0  0  0  0
    1.9234   -2.2766   -0.6234 C   0  0  0  0  0  0  0  0  0  0  0  0
    0.6315   -2.2319   -1.4484 C   0  0  0  0  0  0  0  0  0  0  0  0
    0.5169   -3.2251   -2.3813 N   0  0  0  0  0  0  0  0  0  0  0  0
   -0.6584   -3.3546   -3.2526 C   0  0  0  0  0  0  0  0  0  0  0  0
   -0.3887   -4.3836   -4.3168 C   0  0  0  0  0  0  0  0  0  0  0  0
   -1.5343   -4.6029   -5.2506 C   0  0  0  0  0  0  0  0  0  0  0  0
   -1.2770   -5.5014   -6.1623 F   0  0  0  0  0  0  0  0  0  0  0  0
    3.0481   -0.4313    0.4743 O   0  0  0  0  0  0  0  0  0  0  0  0
   -0.2330   -1.4082   -1.2825 O   0  0  0  0  0  0  0  0  0  0  0  0
   -2.5967   -4.9911   -4.5996 F   0  0  0  0  0  0  0  0  0  0  0  0
   -1.8555   -3.4962   -5.8632 F   0  0  0  0  0  0  0  0  0  0  0  0
    0.6802   -4.0181   -5.0037 F   0  0  0  0  0  0  0  0  0  0  0  0
   -0.0702   -5.5243   -3.7291 F   0  0  0  0  0  0  0  0  0  0  0  0
    3.1340   -2.3156   -1.5772 C   0  0  0  0  0  0  0  0  0  0  0  0
    1.8969   -3.5505    0.2438 C   0  0  0  0  0  0  0  0  0  0  0  0
    2.4289    0.3353    4.9790 H   0  0  0  0  0  0  0  0  0  0  0  0
    1.4357    1.0655    1.7756 H   0  0  0  0  0  0  0  0  0  0  0  0
    3.0046    2.0723    5.6997 H   0  0  0  0  0  0  0  0  0  0  0  0
    2.6126    4.4071    6.1623 H   0  0  0  0  0  0  0  0  0  0  0  0
    0.6920    5.5243    5.1346 H   0  0  0  0  0  0  0  0  0  0  0  0
   -0.7771    4.3478    3.7401 H   0  0  0  0  0  0  0  0  0  0  0  0
   -2.3405    3.0717    3.8625 H   0  0  0  0  0  0  0  0  0  0  0  0
   -4.0954    2.0102    2.7424 H   0  0  0  0  0  0  0  0  0  0  0  0
   -3.6921    0.0079    1.3993 H   0  0  0  0  0  0  0  0  0  0  0  0
   -1.4760   -0.8254    1.1634 H   0  0  0  0  0  0  0  0  0  0  0  0
    0.0710   -1.3634    0.8158 H   0  0  0  0  0  0  0  0  0  0  0  0
    1.2531   -3.9281   -2.4478 H   0  0  0  0  0  0  0  0  0  0  0  0
   -1.5353   -3.6553   -2.6332 H   0  0  0  0  0  0  0  0  0  0  0  0
   -0.8823   -2.3720   -3.7300 H   0  0  0  0  0  0  0  0  0  0  0  0
    3.1091   -3.1970   -2.2562 H   0  0  0  0  0  0  0  0  0  0  0  0
    4.0954   -2.3849   -1.0195 H   0  0  0  0  0  0  0  0  0  0  0  0
    3.1697   -1.4031   -2.2154 H   0  0  0  0  0  0  0  0  0  0  0  0
    0.9974   -3.5818    0.9003 H   0  0  0  0  0  0  0  0  0  0  0  0
    1.8873   -4.4740   -0.3781 H   0  0  0  0  0  0  0  0  0  0  0  0
    2.7947   -3.6060    0.9010 H   0  0  0  0  0  0  0  0  0  0  0  0
  1  2  2  0      
  3  2  1  0      
  2  8  1  0      
  3  4  1  0      
  3 34  1  0      
  5  4  2  0      
  9  4  1  0      
  6  5  1  0      
  5 12  1  0      
  7  6  2  0      
 13  6  1  0      
  8  7  1  0      
  7 16  1  0      
  8 17  1  0      
  8 35  1  0      
 10  9  2  0      
  9 36  1  0      
 11 10  1  0      
 10 37  1  0      
 12 11  2  0      
 11 38  1  0      
 12 39  1  0      
 14 13  2  0      
 13 40  1  0      
 15 14  1  0      
 14 41  1  0      
 16 15  2  0      
 15 42  1  0      
 16 43  1  0      
 17 18  1  0      
 17 44  1  0      
 18 19  1  0      
 18 26  2  0      
 19 20  1  0      
 19 32  1  0      
 19 33  1  0      
 20 21  1  0      
 20 27  2  0      
 21 22  1  0      
 21 45  1  0      
 22 23  1  0      
 22 46  1  0      
 22 47  1  0      
 23 24  1  0      
 23 30  1  0      
 23 31  1  0      
 24 25  1  0      
 24 28  1  0      
 24 29  1  0      
 32 48  1  0      
 32 49  1  0      
 32 50  1  0      
 33 51  1  0      
 33 52  1  0      
 33 53  1  0      
M  END
