
  Chem3D Core 15.001271611413D

 57 61  0  0  0  0  0  0  0  0999 V2000
    2.7453   -2.7360   -1.7384 C   0  0  0  0  0  0  0  0  0  0  0  0
    2.5350   -1.6673   -2.5178 C   0  0  0  0  0  0  0  0  0  0  0  0
    1.3099   -1.3648   -2.9803 C   0  0  0  0  0  0  0  0  0  0  0  0
    0.2635   -2.1544   -2.6448 C   0  0  0  0  0  0  0  0  0  0  0  0
    0.5041   -3.2289   -1.8632 C   0  0  0  0  0  0  0  0  0  0  0  0
    1.7267   -3.5342   -1.4002 C   0  0  0  0  0  0  0  0  0  0  0  0
    3.9583   -2.8466   -1.4115 N   0  0  0  0  0  0  0  0  0  0  0  0
    4.6004   -1.8914   -1.9360 C   0  0  0  0  0  0  0  0  0  0  0  0
    3.8018   -0.9640   -2.7395 S   0  0  0  0  0  0  0  0  0  0  0  0
    5.9217   -1.6667   -1.8078 N   0  0  0  0  0  0  0  0  0  0  0  0
    6.8870   -2.3274   -1.1111 C   0  0  0  0  0  0  0  0  0  0  0  0
    6.5492   -3.4653   -0.2505 C   0  0  0  0  0  0  0  0  0  0  0  0
    8.0269   -1.9458   -1.2279 O   0  0  0  0  0  0  0  0  0  0  0  0
    7.2840   -3.4325    1.0696 C   0  0  0  0  0  0  0  0  0  0  0  0
    5.8401   -3.0059    1.0010 C   0  0  0  0  0  0  0  0  0  0  0  0
    1.1005   -0.3082   -3.7434 C   0  0  0  0  0  0  0  0  0  0  0  0
    0.8797    0.6254   -4.3941 N   0  0  0  0  0  0  0  0  0  0  0  0
   -1.0124   -1.9034   -3.0861 O   0  0  0  0  0  0  0  0  0  0  0  0
   -1.6365   -0.8199   -2.5216 C   0  0  0  0  0  0  0  0  0  0  0  0
   -1.6273   -0.5835   -1.1947 C   0  0  0  0  0  0  0  0  0  0  0  0
   -2.2359    0.4775   -0.6368 C   0  0  0  0  0  0  0  0  0  0  0  0
   -2.9001    1.3312   -1.4416 C   0  0  0  0  0  0  0  0  0  0  0  0
   -2.9340    1.1174   -2.7645 C   0  0  0  0  0  0  0  0  0  0  0  0
   -2.3090    0.0553   -3.2914 C   0  0  0  0  0  0  0  0  0  0  0  0
   -3.5223    2.3841   -0.9295 F   0  0  0  0  0  0  0  0  0  0  0  0
   -2.2612    0.7871    0.6763 N   0  0  0  0  0  0  0  0  0  0  0  0
   -1.7057    0.2185    1.7852 C   0  0  0  0  0  0  0  0  0  0  0  0
   -2.0645    0.9331    3.0803 C   0  0  0  0  0  0  0  0  0  0  0  0
   -0.9947   -0.7539    1.7710 O   0  0  0  0  0  0  0  0  0  0  0  0
   -3.4509    1.5324    2.9909 C   0  0  0  0  0  0  0  0  0  0  0  0
   -3.6198    2.8382    2.7218 C   0  0  0  0  0  0  0  0  0  0  0  0
   -4.8527    3.3482    2.5922 C   0  0  0  0  0  0  0  0  0  0  0  0
   -5.9259    2.5570    2.7382 C   0  0  0  0  0  0  0  0  0  0  0  0
   -5.7884    1.2525    3.0361 C   0  0  0  0  0  0  0  0  0  0  0  0
   -4.5406    0.7571    3.1278 C   0  0  0  0  0  0  0  0  0  0  0  0
   -6.9931    0.3437    3.1304 C   0  0  0  0  0  0  0  0  0  0  0  0
   -8.0269    0.7881    2.4330 F   0  0  0  0  0  0  0  0  0  0  0  0
   -6.7310   -0.8863    2.7159 F   0  0  0  0  0  0  0  0  0  0  0  0
   -7.3797    0.2568    4.3941 F   0  0  0  0  0  0  0  0  0  0  0  0
   -0.3384   -3.8864   -1.5875 H   0  0  0  0  0  0  0  0  0  0  0  0
    1.8895   -4.4165   -0.7606 H   0  0  0  0  0  0  0  0  0  0  0  0
    6.2304   -0.8636   -2.3352 H   0  0  0  0  0  0  0  0  0  0  0  0
    6.3141   -4.4167   -0.7330 H   0  0  0  0  0  0  0  0  0  0  0  0
    7.5034   -4.3941    1.5320 H   0  0  0  0  0  0  0  0  0  0  0  0
    8.0186   -2.6558    1.2734 H   0  0  0  0  0  0  0  0  0  0  0  0
    5.6224   -1.9468    1.1314 H   0  0  0  0  0  0  0  0  0  0  0  0
    5.0939   -3.6797    1.4200 H   0  0  0  0  0  0  0  0  0  0  0  0
   -1.0935   -1.3112   -0.5705 H   0  0  0  0  0  0  0  0  0  0  0  0
   -3.4782    1.8172   -3.4203 H   0  0  0  0  0  0  0  0  0  0  0  0
   -2.3491   -0.1051   -4.3821 H   0  0  0  0  0  0  0  0  0  0  0  0
   -2.8159    1.6217    0.8168 H   0  0  0  0  0  0  0  0  0  0  0  0
   -2.0118    0.2217    3.9366 H   0  0  0  0  0  0  0  0  0  0  0  0
   -1.2949    1.7175    3.2644 H   0  0  0  0  0  0  0  0  0  0  0  0
   -2.7460    3.4954    2.5816 H   0  0  0  0  0  0  0  0  0  0  0  0
   -4.9836    4.4167    2.3517 H   0  0  0  0  0  0  0  0  0  0  0  0
   -6.9287    2.9966    2.6105 H   0  0  0  0  0  0  0  0  0  0  0  0
   -4.3967   -0.3187    3.3189 H   0  0  0  0  0  0  0  0  0  0  0  0
  1  2  1  0      
  1  6  2  0      
  7  1  1  0      
  3  2  2  0      
  2  9  1  0      
  4  3  1  0      
  3 16  1  0      
  5  4  2  0      
  4 18  1  0      
  6  5  1  0      
  5 40  1  0      
  6 41  1  0      
  8  7  2  0      
  8  9  1  0      
  8 10  1  0      
 10 11  1  0      
 10 42  1  0      
 11 12  1  0      
 11 13  2  0      
 12 14  1  0      
 12 15  1  0      
 12 43  1  0      
 14 15  1  0      
 14 44  1  0      
 14 45  1  0      
 15 46  1  0      
 15 47  1  0      
 16 17  3  0      
 18 19  1  0      
 19 20  1  0      
 19 24  2  0      
 20 21  2  0      
 20 48  1  0      
 21 22  1  0      
 21 26  1  0      
 22 23  2  0      
 22 25  1  0      
 23 24  1  0      
 23 49  1  0      
 24 50  1  0      
 26 27  1  0      
 26 51  1  0      
 27 28  1  0      
 27 29  2  0      
 28 30  1  0      
 28 52  1  0      
 28 53  1  0      
 30 31  1  0      
 30 35  2  0      
 31 32  2  0      
 31 54  1  0      
 32 33  1  0      
 32 55  1  0      
 33 34  2  0      
 33 56  1  0      
 34 35  1  0      
 34 36  1  0      
 35 57  1  0      
 36 37  1  0      
 36 38  1  0      
 36 39  1  0      
M  END
