
  Chem3D Core 14.008141513373D

 62 66  0  0  0  0  0  0  0  0999 V2000
    1.6047    3.0183    0.5213 C   0  0  0  0  0  0  0  0  0  0  0  0
    1.3674    1.6981    0.5178 C   0  0  0  0  0  0  0  0  0  0  0  0
    0.1130    1.2255    0.5122 C   0  0  0  0  0  0  0  0  0  0  0  0
   -0.9866    2.0120    0.5135 C   0  0  0  0  0  0  0  0  0  0  0  0
   -0.7683    3.3501    0.5208 C   0  0  0  0  0  0  0  0  0  0  0  0
    0.5078    3.7945    0.5157 C   0  0  0  0  0  0  0  0  0  0  0  0
   -1.7229    4.3341    0.4812 O   0  0  0  0  0  0  0  0  0  0  0  0
   -2.8906    4.0954   -0.2430 C   0  0  0  0  0  0  0  0  0  0  0  0
   -3.8184    3.2134    0.5692 C   0  0  0  0  0  0  0  0  0  0  0  0
   -3.3857    1.8150    0.5590 N   0  0  0  0  0  0  0  0  0  0  0  0
   -2.1901    1.3916    0.5303 C   0  0  0  0  0  0  0  0  0  0  0  0
   -2.3100    0.1240    0.5274 N   0  0  0  0  0  0  0  0  0  0  0  0
   -3.5257   -0.2426    0.5553 C   0  0  0  0  0  0  0  0  0  0  0  0
   -4.2460    0.8870    0.5763 C   0  0  0  0  0  0  0  0  0  0  0  0
   -3.8854   -1.5404    0.5575 C   0  0  0  0  0  0  0  0  0  0  0  0
   -5.0022   -2.1572    0.5878 N   0  0  0  0  0  0  0  0  0  0  0  0
   -4.8579   -3.3832    0.5629 N   0  0  0  0  0  0  0  0  0  0  0  0
   -3.6074   -3.5441    0.5222 C   0  0  0  0  0  0  0  0  0  0  0  0
   -2.9916   -2.4425    0.5184 N   0  0  0  0  0  0  0  0  0  0  0  0
   -2.9296   -4.8762    0.4806 C   0  0  0  0  0  0  0  0  0  0  0  0
   -6.3195   -1.4849    0.6459 C   0  0  0  0  0  0  0  0  0  0  0  0
   -6.7487   -1.0264   -0.7571 C   0  0  0  0  0  0  0  0  0  0  0  0
   -7.4032   -2.4046    1.2412 C   0  0  0  0  0  0  0  0  0  0  0  0
    2.8547    3.5203    0.5238 C   0  0  0  0  0  0  0  0  0  0  0  0
    3.2598    4.8032    0.5266 C   0  0  0  0  0  0  0  0  0  0  0  0
    4.5214    4.8961    0.5264 N   0  0  0  0  0  0  0  0  0  0  0  0
    4.9432    3.7364    0.5205 N   0  0  0  0  0  0  0  0  0  0  0  0
    4.0240    2.8595    0.5211 C   0  0  0  0  0  0  0  0  0  0  0  0
    6.3641    3.2986    0.4897 C   0  0  0  0  0  0  0  0  0  0  0  0
    6.5862    2.4244   -0.7484 C   0  0  0  0  0  0  0  0  0  0  0  0
    7.3571    1.5027   -0.8212 O   0  0  0  0  0  0  0  0  0  0  0  0
    5.8282    2.7735   -1.8217 N   0  0  0  0  0  0  0  0  0  0  0  0
    7.3105    4.5081    0.3330 C   0  0  0  0  0  0  0  0  0  0  0  0
    6.7455    2.5440    1.7780 C   0  0  0  0  0  0  0  0  0  0  0  0
    2.1889    0.9634    0.5198 H   0  0  0  0  0  0  0  0  0  0  0  0
    0.0480    0.1238    0.5125 H   0  0  0  0  0  0  0  0  0  0  0  0
    0.6312    4.8902    0.5044 H   0  0  0  0  0  0  0  0  0  0  0  0
   -3.3728    5.0907   -0.3981 H   0  0  0  0  0  0  0  0  0  0  0  0
   -2.6510    3.6781   -1.2468 H   0  0  0  0  0  0  0  0  0  0  0  0
   -3.8959    3.5730    1.6223 H   0  0  0  0  0  0  0  0  0  0  0  0
   -4.8387    3.3059    0.1234 H   0  0  0  0  0  0  0  0  0  0  0  0
   -5.3204    1.0809    0.6000 H   0  0  0  0  0  0  0  0  0  0  0  0
   -3.6683   -5.7093    0.4807 H   0  0  0  0  0  0  0  0  0  0  0  0
   -2.3086   -4.9650   -0.4395 H   0  0  0  0  0  0  0  0  0  0  0  0
   -2.2681   -5.0003    1.3677 H   0  0  0  0  0  0  0  0  0  0  0  0
   -6.2497   -0.6279    1.3549 H   0  0  0  0  0  0  0  0  0  0  0  0
   -7.7114   -0.4675   -0.7199 H   0  0  0  0  0  0  0  0  0  0  0  0
   -5.9938   -0.3616   -1.2322 H   0  0  0  0  0  0  0  0  0  0  0  0
   -6.8849   -1.9004   -1.4340 H   0  0  0  0  0  0  0  0  0  0  0  0
   -8.3755   -1.8690    1.3381 H   0  0  0  0  0  0  0  0  0  0  0  0
   -7.1159   -2.7594    2.2578 H   0  0  0  0  0  0  0  0  0  0  0  0
   -7.5807   -3.3000    0.6033 H   0  0  0  0  0  0  0  0  0  0  0  0
    2.6407    5.7093    0.5282 H   0  0  0  0  0  0  0  0  0  0  0  0
    4.2295    1.7842    0.5113 H   0  0  0  0  0  0  0  0  0  0  0  0
    5.9407    2.2442   -2.6742 H   0  0  0  0  0  0  0  0  0  0  0  0
    5.1457    3.5159   -1.7423 H   0  0  0  0  0  0  0  0  0  0  0  0
    8.3755    4.1877    0.2704 H   0  0  0  0  0  0  0  0  0  0  0  0
    7.2239    5.2018    1.2001 H   0  0  0  0  0  0  0  0  0  0  0  0
    7.0852    5.0907   -0.5894 H   0  0  0  0  0  0  0  0  0  0  0  0
    6.5396    3.1727    2.6742 H   0  0  0  0  0  0  0  0  0  0  0  0
    6.1715    1.5979    1.8956 H   0  0  0  0  0  0  0  0  0  0  0  0
    7.8265    2.2784    1.8000 H   0  0  0  0  0  0  0  0  0  0  0  0
  1  2  2  0      
  1  6  1  0      
  1 24  1  0      
  2  3  1  0      
  2 35  1  0      
  3  4  2  0      
  3 36  1  0      
  4  5  1  0      
  4 11  1  0      
  5  6  2  0      
  5  7  1  0      
  6 37  1  0      
  7  8  1  0      
  8  9  1  0      
  8 38  1  0      
  8 39  1  0      
  9 10  1  0      
  9 40  1  0      
  9 41  1  0      
 10 11  1  0      
 10 14  1  0      
 11 12  2  0      
 12 13  1  0      
 13 14  2  0      
 13 15  1  0      
 14 42  1  0      
 15 16  1  0      
 15 19  2  0      
 16 17  1  0      
 16 21  1  0      
 17 18  2  0      
 18 19  1  0      
 18 20  1  0      
 20 43  1  0      
 20 44  1  0      
 20 45  1  0      
 21 22  1  0      
 21 23  1  0      
 21 46  1  0      
 22 47  1  0      
 22 48  1  0      
 22 49  1  0      
 23 50  1  0      
 23 51  1  0      
 23 52  1  0      
 25 24  1  0      
 24 28  2  0      
 25 26  2  0      
 25 53  1  0      
 27 26  1  0      
 28 27  1  0      
 27 29  1  0      
 28 54  1  0      
 29 30  1  0      
 29 33  1  0      
 29 34  1  0      
 30 31  2  0      
 30 32  1  0      
 32 55  1  0      
 32 56  1  0      
 33 57  1  0      
 33 58  1  0      
 33 59  1  0      
 34 60  1  0      
 34 61  1  0      
 34 62  1  0      
M  END
