
  Chem3D Core 14.010291516343D

  0  0  0     0  0              0 V3000
M  V30 BEGIN CTAB
M  V30 COUNTS 46 48 0 0 0
M  V30 BEGIN ATOM
M  V30 1 S -7.121617 1.787740 -0.153789 0
M  V30 2 O 5.736947 -0.061518 -1.090134 0
M  V30 3 O 5.306242 -2.237400 -0.795392 0
M  V30 4 N 1.788346 0.654683 -0.821916 0
M  V30 5 C -5.982580 -1.257311 0.155012 0
M  V30 6 C -7.473969 -0.871104 0.031480 0
M  V30 7 C -5.022449 -0.093354 -0.111473 0
M  V30 8 C -5.749860 -2.400854 -0.863753 0
M  V30 9 C -5.708451 -1.806216 1.574687 0
M  V30 10 C -7.839253 0.414290 0.774425 0
M  V30 11 C -5.404120 1.192793 -0.255537 0
M  V30 12 C -3.699514 -0.345925 -0.193572 0
M  V30 13 C -4.499738 2.163659 -0.477197 0
M  V30 14 C -2.787753 0.613185 -0.419463 0
M  V30 15 C -3.192513 1.882249 -0.564303 0
M  V30 16 C -1.507945 0.315452 -0.493418 0
M  V30 17 C -0.330369 0.035717 -0.562282 0
M  V30 18 C 0.946816 -0.273326 -0.638252 0
M  V30 19 C 1.328067 -1.556125 -0.521037 0
M  V30 20 C 3.522258 -0.879229 -0.795622 0
M  V30 21 C 2.630935 -1.868310 -0.599840 0
M  V30 22 C 3.019062 0.365948 -0.897273 0
M  V30 23 C 4.867743 -1.106717 -0.888855 0
M  V30 24 C 7.110723 -0.329028 -1.188406 0
M  V30 25 C 7.849470 0.987085 -1.413324 0
M  V30 26 H -8.103126 -1.704490 0.426254 0
M  V30 27 H -7.760890 -0.770748 -1.042723 0
M  V30 28 H -5.838850 -2.029732 -1.910315 0
M  V30 29 H -4.754282 -2.885370 -0.766972 0
M  V30 30 H -6.496651 -3.216521 -0.731572 0
M  V30 31 H -4.682865 -2.225851 1.674348 0
M  V30 32 H -5.806913 -1.015893 2.351313 0
M  V30 33 H -6.411425 -2.628307 1.838280 0
M  V30 34 H -8.947919 0.534898 0.806197 0
M  V30 35 H -7.486805 0.399317 1.829170 0
M  V30 36 H -3.328028 -1.375481 -0.067430 0
M  V30 37 H -4.810755 3.216521 -0.590924 0
M  V30 38 H -2.465890 2.692207 -0.746754 0
M  V30 39 H 0.583397 -2.354658 -0.361266 0
M  V30 40 H 2.921604 -2.926613 -0.501198 0
M  V30 41 H 3.671488 1.241146 -1.058162 0
M  V30 42 H 7.464756 -0.801220 -0.242104 0
M  V30 43 H 7.294168 -1.014049 -2.049178 0
M  V30 44 H 8.947919 0.818493 -1.496592 0
M  V30 45 H 7.509249 1.483244 -2.351313 0
M  V30 46 H 7.676555 1.693877 -0.569349 0
M  V30 END ATOM
M  V30 BEGIN BOND
M  V30 1 1 1 10
M  V30 2 1 11 1
M  V30 3 1 2 23
M  V30 4 1 2 24
M  V30 5 2 3 23
M  V30 6 2 18 4
M  V30 7 1 4 22
M  V30 8 1 6 5
M  V30 9 1 5 7
M  V30 10 1 5 8
M  V30 11 1 5 9
M  V30 12 1 10 6
M  V30 13 1 6 26
M  V30 14 1 6 27
M  V30 15 2 11 7
M  V30 16 1 7 12
M  V30 17 1 8 28
M  V30 18 1 8 29
M  V30 19 1 8 30
M  V30 20 1 9 31
M  V30 21 1 9 32
M  V30 22 1 9 33
M  V30 23 1 10 34
M  V30 24 1 10 35
M  V30 25 1 13 11
M  V30 26 2 14 12
M  V30 27 1 12 36
M  V30 28 2 15 13
M  V30 29 1 13 37
M  V30 30 1 14 15
M  V30 31 1 14 16
M  V30 32 1 15 38
M  V30 33 3 16 17
M  V30 34 1 17 18
M  V30 35 1 19 18
M  V30 36 2 21 19
M  V30 37 1 19 39
M  V30 38 1 20 21
M  V30 39 2 20 22
M  V30 40 1 20 23
M  V30 41 1 21 40
M  V30 42 1 22 41
M  V30 43 1 24 25
M  V30 44 1 24 42
M  V30 45 1 24 43
M  V30 46 1 25 44
M  V30 47 1 25 45
M  V30 48 1 25 46
M  V30 END BOND
M  V30 END CTAB
M  END
