
  Chem3D Core 14.010291515403D

  0  0  0     0  0              0 V3000
M  V30 BEGIN CTAB
M  V30 COUNTS 47 48 0 0 0
M  V30 BEGIN ATOM
M  V30 1 N 2.217499 -0.733220 -0.156300 0
M  V30 2 C 3.556750 -0.522439 -0.700621 0
M  V30 3 C 3.517703 0.420559 -1.897598 0
M  V30 4 C 3.943759 1.705996 -1.887320 0
M  V30 5 C 3.869934 2.443932 -3.018797 0
M  V30 6 C -3.462331 -3.264151 3.181718 0
M  V30 7 C 2.215735 -1.834532 0.802256 0
M  V30 8 C 3.021057 -0.088272 -3.041394 0
M  V30 9 C 4.438632 2.307326 -0.786413 0
M  V30 10 C 1.695152 0.484233 0.449338 0
M  V30 11 C 3.373612 1.908107 -4.148249 0
M  V30 12 C 2.945024 0.640106 -4.161920 0
M  V30 13 C 4.288170 3.723817 -3.033014 0
M  V30 14 C -3.462699 -4.485646 4.117249 0
M  V30 15 C -4.136692 -3.618735 1.844863 0
M  V30 16 C -4.191272 -2.084133 3.847717 0
M  V30 17 C 0.803636 -2.227264 1.168662 0
M  V30 18 C 4.854477 3.582974 -0.798645 0
M  V30 19 C 4.782341 4.298348 -1.927979 0
M  V30 20 C -2.061217 -2.869272 2.915894 0
M  V30 21 C 0.324403 -2.200355 2.421345 0
M  V30 22 C -0.916040 -2.548444 2.681304 0
M  V30 23 H 3.969203 -1.488381 -1.080344 0
M  V30 24 H 4.274960 -0.231752 0.093965 0
M  V30 25 H 2.675591 -2.746653 0.351677 0
M  V30 26 H 2.816193 -1.578414 1.705548 0
M  V30 27 H 2.662729 -1.131362 -3.071051 0
M  V30 28 H 4.521151 1.790240 0.180795 0
M  V30 29 H 0.658279 0.337050 0.826648 0
M  V30 30 H 1.627925 1.309538 -0.294364 0
M  V30 31 H 2.326573 0.828584 1.299978 0
M  V30 32 H 3.304157 2.493876 -5.080910 0
M  V30 33 H 2.534453 0.200071 -5.086142 0
M  V30 34 H 4.232498 4.332267 -3.952224 0
M  V30 35 H -2.964032 -4.254758 5.086142 0
M  V30 36 H -4.501407 -4.817309 4.343685 0
M  V30 37 H -2.926174 -5.347680 3.659213 0
M  V30 38 H -4.133539 -2.751292 1.146052 0
M  V30 39 H -5.196743 -3.923545 1.998580 0
M  V30 40 H -3.614001 -4.461519 1.337623 0
M  V30 41 H -3.708772 -1.800551 4.810797 0
M  V30 42 H -4.189385 -1.183712 3.191944 0
M  V30 43 H -5.253071 -2.339886 4.065460 0
M  V30 44 H 0.150032 -2.546789 0.337907 0
M  V30 45 H 5.253071 4.047712 0.119190 0
M  V30 46 H 5.120933 5.347680 -1.945404 0
M  V30 47 H 0.971432 -1.878976 3.252731 0
M  V30 END ATOM
M  V30 BEGIN BOND
M  V30 1 1 1 2
M  V30 2 1 1 7
M  V30 3 1 1 10
M  V30 4 1 2 3
M  V30 5 1 2 23
M  V30 6 1 2 24
M  V30 7 1 3 4
M  V30 8 2 8 3
M  V30 9 1 4 5
M  V30 10 2 4 9
M  V30 11 1 5 11
M  V30 12 2 13 5
M  V30 13 1 6 14
M  V30 14 1 6 15
M  V30 15 1 6 16
M  V30 16 1 6 20
M  V30 17 1 7 17
M  V30 18 1 7 25
M  V30 19 1 7 26
M  V30 20 1 12 8
M  V30 21 1 8 27
M  V30 22 1 9 18
M  V30 23 1 9 28
M  V30 24 1 10 29
M  V30 25 1 10 30
M  V30 26 1 10 31
M  V30 27 2 12 11
M  V30 28 1 11 32
M  V30 29 1 12 33
M  V30 30 1 19 13
M  V30 31 1 13 34
M  V30 32 1 14 35
M  V30 33 1 14 36
M  V30 34 1 14 37
M  V30 35 1 15 38
M  V30 36 1 15 39
M  V30 37 1 15 40
M  V30 38 1 16 41
M  V30 39 1 16 42
M  V30 40 1 16 43
M  V30 41 2 17 21
M  V30 42 1 17 44
M  V30 43 2 18 19
M  V30 44 1 18 45
M  V30 45 1 19 46
M  V30 46 3 20 22
M  V30 47 1 21 22
M  V30 48 1 21 47
M  V30 END BOND
M  V30 END CTAB
M  END
