
  Chem3D Core 14.008171511423D

 60 64  0  0  0  0  0  0  0  0999 V2000
    1.9172   -6.6886    6.2867 I   0  0  0  0  0  0  0  0  0  0  0  0
   -0.6107   -2.1449    5.0640 F   0  0  0  0  0  0  0  0  0  0  0  0
   -0.8058    0.2992    3.1318 O   0  0  0  0  0  0  0  0  0  0  0  0
    0.5777    3.5549    0.4792 O   0  0  0  0  0  0  0  0  0  0  0  0
    1.1793   -2.8356   -1.7431 O   0  0  0  0  0  0  0  0  0  0  0  0
   -0.2653    4.7770   -6.0151 O   0  0  0  0  0  0  0  0  0  0  0  0
    0.3374    1.4611   -0.3542 N   0  0  0  0  0  0  0  0  0  0  0  0
    0.2556    1.8545    1.9264 N   0  0  0  0  0  0  0  0  0  0  0  0
    0.4239   -2.5017    0.3419 N   0  0  0  0  0  0  0  0  0  0  0  0
    0.1552   -2.0909    2.5994 N   0  0  0  0  0  0  0  0  0  0  0  0
    0.7668    4.2521   -4.0559 N   0  0  0  0  0  0  0  0  0  0  0  0
    0.4393    0.1271   -0.1025 C   0  0  0  0  0  0  0  0  0  0  0  0
    0.1256   -0.3420    1.1324 C   0  0  0  0  0  0  0  0  0  0  0  0
   -0.2154    0.5631    2.1062 C   0  0  0  0  0  0  0  0  0  0  0  0
    0.4408    2.3701    0.6631 C   0  0  0  0  0  0  0  0  0  0  0  0
    0.2334   -1.6722    1.3977 C   0  0  0  0  0  0  0  0  0  0  0  0
    0.8914   -0.7099   -1.0647 C   0  0  0  0  0  0  0  0  0  0  0  0
    0.4178    2.7233    3.0824 C   0  0  0  0  0  0  0  0  0  0  0  0
    0.8649   -2.0557   -0.8719 C   0  0  0  0  0  0  0  0  0  0  0  0
   -0.1350    1.9146   -1.5443 C   0  0  0  0  0  0  0  0  0  0  0  0
    1.3386    2.1528    4.1302 C   0  0  0  0  0  0  0  0  0  0  0  0
    1.8187    3.2590    3.2261 C   0  0  0  0  0  0  0  0  0  0  0  0
    0.4956    2.8558   -2.2733 C   0  0  0  0  0  0  0  0  0  0  0  0
   -1.2897    1.4169   -2.0226 C   0  0  0  0  0  0  0  0  0  0  0  0
    0.5517   -3.0908    3.2854 C   0  0  0  0  0  0  0  0  0  0  0  0
    1.4457   -0.2514   -2.4046 C   0  0  0  0  0  0  0  0  0  0  0  0
   -0.1012   -3.8786    0.3516 C   0  0  0  0  0  0  0  0  0  0  0  0
    0.0163    3.3095   -3.4474 C   0  0  0  0  0  0  0  0  0  0  0  0
    0.1705   -3.1020    4.5812 C   0  0  0  0  0  0  0  0  0  0  0  0
   -1.7851    1.8501   -3.1905 C   0  0  0  0  0  0  0  0  0  0  0  0
    1.3710   -4.0758    2.8742 C   0  0  0  0  0  0  0  0  0  0  0  0
   -1.1382    2.7893   -3.8974 C   0  0  0  0  0  0  0  0  0  0  0  0
    0.5373   -4.0985    5.4037 C   0  0  0  0  0  0  0  0  0  0  0  0
    1.7439   -5.0744    3.6900 C   0  0  0  0  0  0  0  0  0  0  0  0
    1.3172   -5.0944    4.9602 C   0  0  0  0  0  0  0  0  0  0  0  0
    0.6361    4.9320   -5.2312 C   0  0  0  0  0  0  0  0  0  0  0  0
    1.7526    5.9291   -5.4835 C   0  0  0  0  0  0  0  0  0  0  0  0
   -0.2144   -1.4024    3.2944 H   0  0  0  0  0  0  0  0  0  0  0  0
    1.5762    4.4634   -3.4894 H   0  0  0  0  0  0  0  0  0  0  0  0
   -0.4950    3.2802    3.2798 H   0  0  0  0  0  0  0  0  0  0  0  0
    1.1180    2.4048    5.1662 H   0  0  0  0  0  0  0  0  0  0  0  0
    1.7746    1.1662    3.9806 H   0  0  0  0  0  0  0  0  0  0  0  0
    2.5678    2.9998    2.4797 H   0  0  0  0  0  0  0  0  0  0  0  0
    1.9218    4.2546    3.6550 H   0  0  0  0  0  0  0  0  0  0  0  0
    1.4556    3.2596   -1.9072 H   0  0  0  0  0  0  0  0  0  0  0  0
   -1.8494    0.6513   -1.4591 H   0  0  0  0  0  0  0  0  0  0  0  0
    0.6698   -0.2937   -3.2021 H   0  0  0  0  0  0  0  0  0  0  0  0
    1.9000    0.7597   -2.3636 H   0  0  0  0  0  0  0  0  0  0  0  0
    2.3105   -0.8692   -2.7346 H   0  0  0  0  0  0  0  0  0  0  0  0
   -0.8656   -3.9838   -0.4531 H   0  0  0  0  0  0  0  0  0  0  0  0
    0.6842   -4.6405    0.1480 H   0  0  0  0  0  0  0  0  0  0  0  0
   -0.6624   -4.1407    1.2738 H   0  0  0  0  0  0  0  0  0  0  0  0
   -2.7340    1.4327   -3.5687 H   0  0  0  0  0  0  0  0  0  0  0  0
    1.8168   -4.0683    1.8700 H   0  0  0  0  0  0  0  0  0  0  0  0
   -1.5975    3.1036   -4.8447 H   0  0  0  0  0  0  0  0  0  0  0  0
    0.1899   -4.0886    6.4498 H   0  0  0  0  0  0  0  0  0  0  0  0
    2.4231   -5.8586    3.3161 H   0  0  0  0  0  0  0  0  0  0  0  0
    1.7796    6.6886   -4.6694 H   0  0  0  0  0  0  0  0  0  0  0  0
    2.7340    5.4042   -5.5212 H   0  0  0  0  0  0  0  0  0  0  0  0
    1.6088    6.4632   -6.4498 H   0  0  0  0  0  0  0  0  0  0  0  0
  1 35  1  0      
  2 29  1  0      
  3 14  2  0      
  4 15  2  0      
  5 19  2  0      
  6 36  2  0      
  7 12  1  0      
  7 15  1  0      
  7 20  1  0      
  8 14  1  0      
  8 15  1  0      
  8 18  1  0      
  9 16  1  0      
  9 19  1  0      
  9 27  1  0      
 10 16  1  0      
 10 25  1  0      
 38 10  1  0      
 11 28  1  0      
 11 36  1  0      
 39 11  1  0      
 12 13  1  0      
 12 17  2  0      
 13 14  1  0      
 13 16  2  0      
 17 19  1  0      
 17 26  1  0      
 18 21  1  0      
 18 22  1  0      
 40 18  1  0      
 20 23  2  0      
 20 24  1  0      
 21 22  1  0      
 41 21  1  0      
 42 21  1  0      
 43 22  1  0      
 44 22  1  0      
 23 28  1  0      
 45 23  1  0      
 24 30  2  0      
 46 24  1  0      
 25 29  1  0      
 25 31  2  0      
 47 26  1  0      
 48 26  1  0      
 49 26  1  0      
 50 27  1  0      
 51 27  1  0      
 52 27  1  0      
 28 32  2  0      
 29 33  2  0      
 30 32  1  0      
 53 30  1  0      
 31 34  1  0      
 54 31  1  0      
 55 32  1  0      
 33 35  1  0      
 56 33  1  0      
 34 35  2  0      
 57 34  1  0      
 36 37  1  0      
 58 37  1  0      
 59 37  1  0      
 60 37  1  0      
M  END
