
  Chem3D Core 15.010151510583D

 34 36  0  0  0  0  0  0  0  0999 V2000
    2.0233   -1.2583   -0.8632 O   0  0  0  0  0  0  0  0  0  0  0  0
   -0.1538   -0.7463   -0.7296 N   0  0  0  0  0  0  0  0  0  0  0  0
   -2.3713   -0.2101   -0.4795 N   0  0  0  0  0  0  0  0  0  0  0  0
   -3.0388    1.7131    0.3896 N   0  0  0  0  0  0  0  0  0  0  0  0
    3.8429    0.5483   -0.0718 N   0  0  0  0  0  0  0  0  0  0  0  0
    4.9050    1.1172    0.1945 N   0  0  0  0  0  0  0  0  0  0  0  0
   -4.5037    0.2300   -0.2764 N   0  0  0  0  0  0  0  0  0  0  0  0
   -1.1476    0.0916   -0.3475 C   0  0  0  0  0  0  0  0  0  0  0  0
   -0.8254    1.2755    0.1939 C   0  0  0  0  0  0  0  0  0  0  0  0
    1.4852    0.7703   -0.0039 C   0  0  0  0  0  0  0  0  0  0  0  0
    1.1808   -0.4500   -0.5450 C   0  0  0  0  0  0  0  0  0  0  0  0
   -0.4988   -2.0458   -1.3355 C   0  0  0  0  0  0  0  0  0  0  0  0
    0.4710    1.5873    0.3424 C   0  0  0  0  0  0  0  0  0  0  0  0
   -1.8404    2.0820    0.5578 C   0  0  0  0  0  0  0  0  0  0  0  0
    2.7628    1.1690    0.1903 C   0  0  0  0  0  0  0  0  0  0  0  0
   -0.5520   -3.1466   -0.2679 C   0  0  0  0  0  0  0  0  0  0  0  0
   -1.6757    3.4495    1.1794 C   0  0  0  0  0  0  0  0  0  0  0  0
   -3.2939    0.5814   -0.1204 C   0  0  0  0  0  0  0  0  0  0  0  0
    3.2273    2.3218    0.7078 C   0  0  0  0  0  0  0  0  0  0  0  0
    4.5635    2.2295    0.6841 C   0  0  0  0  0  0  0  0  0  0  0  0
    3.9060   -0.4037   -0.4947 H   0  0  0  0  0  0  0  0  0  0  0  0
   -4.7365   -0.7033   -0.6968 H   0  0  0  0  0  0  0  0  0  0  0  0
   -5.2830    0.8702    0.0142 H   0  0  0  0  0  0  0  0  0  0  0  0
   -1.4741   -2.0065   -1.8724 H   0  0  0  0  0  0  0  0  0  0  0  0
    0.2144   -2.3204   -2.1464 H   0  0  0  0  0  0  0  0  0  0  0  0
    0.6913    2.5697    0.7824 H   0  0  0  0  0  0  0  0  0  0  0  0
   -0.8209   -4.1291   -0.7196 H   0  0  0  0  0  0  0  0  0  0  0  0
    0.4300   -3.2685    0.2428 H   0  0  0  0  0  0  0  0  0  0  0  0
   -1.3140   -2.9111    0.5100 H   0  0  0  0  0  0  0  0  0  0  0  0
   -1.1277    3.3782    2.1464 H   0  0  0  0  0  0  0  0  0  0  0  0
   -1.1208    4.1291    0.4934 H   0  0  0  0  0  0  0  0  0  0  0  0
   -2.6512    3.9402    1.3980 H   0  0  0  0  0  0  0  0  0  0  0  0
    2.6792    3.1920    1.0870 H   0  0  0  0  0  0  0  0  0  0  0  0
    5.2830    2.9834    1.0280 H   0  0  0  0  0  0  0  0  0  0  0  0
  1 11  2  0      
  2  8  1  0      
  2 11  1  0      
  2 12  1  0      
  3  8  1  0      
 18  3  2  0      
 14  4  2  0      
  4 18  1  0      
  5  6  1  0      
 15  5  1  0      
  5 21  1  0      
 20  6  2  0      
  7 18  1  0      
  7 22  1  0      
  7 23  1  0      
  9  8  2  0      
 13  9  1  0      
  9 14  1  0      
 11 10  1  0      
 10 13  2  0      
 10 15  1  0      
 12 16  1  0      
 12 24  1  0      
 12 25  1  0      
 13 26  1  0      
 14 17  1  0      
 19 15  2  0      
 16 27  1  0      
 16 28  1  0      
 16 29  1  0      
 17 30  1  0      
 17 31  1  0      
 17 32  1  0      
 20 19  1  0      
 19 33  1  0      
 20 34  1  0      
M  END
