
  Chem3D Core 15.003291616373D

  0  0  0     0  0              0 V3000
M  V30 BEGIN CTAB
M  V30 COUNTS 49 51 0 0 0
M  V30 BEGIN ATOM
M  V30 1 O 3.289090 -1.730075 -1.099610 0
M  V30 2 C 2.739417 -1.524317 -0.049684 0
M  V30 3 N 1.462262 -1.008927 -0.024450 0
M  V30 4 C 0.464400 -1.398601 0.969742 0
M  V30 5 C -0.581535 -2.305183 0.301520 0
M  V30 6 C -1.219756 -1.620213 -0.911203 0
M  V30 7 O -2.095549 -2.531069 -1.516214 0
M  V30 8 C -2.760685 -2.095102 -2.636698 0
M  V30 9 C -3.598902 -1.039528 -2.595536 0
M  V30 10 C -4.266021 -0.610526 -3.677427 0
M  V30 11 C -4.121152 -1.248380 -4.846733 0
M  V30 12 C -3.315082 -2.317394 -4.913519 0
M  V30 13 C -2.653920 -2.735746 -3.821182 0
M  V30 14 Cl -1.633029 -4.125273 -3.979059 0
M  V30 15 C -0.126580 -1.161659 -1.882066 0
M  V30 16 C 0.892121 -0.276001 -1.150508 0
M  V30 17 N 3.441527 -1.831887 1.078484 0
M  V30 18 C 3.473798 -1.302499 2.318379 0
M  V30 19 C 4.234887 -1.940639 3.222060 0
M  V30 20 C 4.319720 -1.476763 4.476036 0
M  V30 21 C 3.655658 -0.366484 4.831058 0
M  V30 22 C 2.901608 0.310097 3.941567 0
M  V30 23 C 2.250303 1.447684 4.329855 0
M  V30 24 N 1.503999 2.081286 3.373919 0
M  V30 25 C 0.753072 3.306063 3.649426 0
M  V30 26 O 2.301793 1.900898 5.450556 0
M  V30 27 C 2.834396 -0.177269 2.685394 0
M  V30 28 H 0.918162 -1.953321 1.822329 0
M  V30 29 H -0.029104 -0.491194 1.389942 0
M  V30 30 H -0.087696 -3.251871 -0.025218 0
M  V30 31 H -1.370545 -2.583403 1.040648 0
M  V30 32 H -1.794751 -0.737538 -0.544333 0
M  V30 33 H -3.757439 -0.502675 -1.645603 0
M  V30 34 H -4.938998 0.260346 -3.605027 0
M  V30 35 H -4.667986 -0.904121 -5.740242 0
M  V30 36 H -3.209451 -2.843582 -5.877445 0
M  V30 37 H 0.396910 -2.048524 -2.311649 0
M  V30 38 H -0.566604 -0.588398 -2.732028 0
M  V30 39 H 1.680004 0.081579 -1.852184 0
M  V30 40 H 0.389366 0.644427 -0.770769 0
M  V30 41 H 4.108728 -2.582816 0.984397 0
M  V30 42 H 4.788424 -2.854588 2.947031 0
M  V30 43 H 4.938998 -2.011146 5.216539 0
M  V30 44 H 3.767604 -0.036666 5.877445 0
M  V30 45 H 1.463735 1.695059 2.433862 0
M  V30 46 H -0.012897 3.128892 4.437891 0
M  V30 47 H 1.438226 4.125273 3.964426 0
M  V30 48 H 0.229831 3.626154 2.720529 0
M  V30 49 H 2.265915 0.345396 1.905799 0
M  V30 END ATOM
M  V30 BEGIN BOND
M  V30 1 2 1 2
M  V30 2 1 2 3
M  V30 3 1 2 17
M  V30 4 1 3 4
M  V30 5 1 3 16
M  V30 6 1 4 5
M  V30 7 1 4 28
M  V30 8 1 4 29
M  V30 9 1 5 6
M  V30 10 1 5 30
M  V30 11 1 5 31
M  V30 12 1 6 7
M  V30 13 1 6 15
M  V30 14 1 6 32
M  V30 15 1 7 8
M  V30 16 1 8 9
M  V30 17 2 8 13
M  V30 18 2 9 10
M  V30 19 1 9 33
M  V30 20 1 10 11
M  V30 21 1 10 34
M  V30 22 2 11 12
M  V30 23 1 11 35
M  V30 24 1 12 13
M  V30 25 1 12 36
M  V30 26 1 13 14
M  V30 27 1 15 16
M  V30 28 1 15 37
M  V30 29 1 15 38
M  V30 30 1 16 39
M  V30 31 1 16 40
M  V30 32 1 17 18
M  V30 33 1 17 41
M  V30 34 1 18 19
M  V30 35 2 18 27
M  V30 36 2 19 20
M  V30 37 1 19 42
M  V30 38 1 20 21
M  V30 39 1 20 43
M  V30 40 2 21 22
M  V30 41 1 21 44
M  V30 42 1 22 23
M  V30 43 1 22 27
M  V30 44 1 23 24
M  V30 45 2 23 26
M  V30 46 1 24 25
M  V30 47 1 24 45
M  V30 48 1 25 46
M  V30 49 1 25 47
M  V30 50 1 25 48
M  V30 51 1 27 49
M  V30 END BOND
M  V30 END CTAB
M  END
