
  Chem3D Core 15.008171513113D

 57 61  0  0  0  0  0  0  0  0999 V2000
    0.3685   -0.2763   -2.8223 C   0  0  0  0  0  0  0  0  0  0  0  0
    1.0316   -0.2094   -1.4294 C   0  0  0  0  0  0  0  0  0  0  0  0
    2.5324   -0.4653   -1.6404 C   0  0  0  0  0  0  0  0  0  0  0  0
    3.1645   -1.6523   -1.7891 C   0  0  0  0  0  0  0  0  0  0  0  0
    4.5073   -1.7582   -1.8796 C   0  0  0  0  0  0  0  0  0  0  0  0
    5.0889   -2.9586   -2.0261 C   0  0  0  0  0  0  0  0  0  0  0  0
    4.3025   -4.0411   -2.0888 C   0  0  0  0  0  0  0  0  0  0  0  0
    3.0430   -3.9746   -2.0183 N   0  0  0  0  0  0  0  0  0  0  0  0
    2.5161   -2.8315   -1.8761 C   0  0  0  0  0  0  0  0  0  0  0  0
    3.1395    0.7336   -1.7544 C   0  0  0  0  0  0  0  0  0  0  0  0
    2.2260    1.9209   -1.5980 C   0  0  0  0  0  0  0  0  0  0  0  0
    1.0967    1.2223   -0.8373 C   0  0  0  0  0  0  0  0  0  0  0  0
    1.4935    1.1311    0.2100 H   0  0  0  0  0  0  0  0  0  0  0  0
   -0.2581    1.9269   -0.7025 C   0  0  0  0  0  0  0  0  0  0  0  0
   -0.7365    2.0009   -1.7057 H   0  0  0  0  0  0  0  0  0  0  0  0
   -0.0724    3.3455   -0.1494 C   0  0  0  0  0  0  0  0  0  0  0  0
   -1.3705    3.9495    0.2984 C   0  0  0  0  0  0  0  0  0  0  0  0
   -2.4884    3.2540    0.5646 C   0  0  0  0  0  0  0  0  0  0  0  0
   -3.7469    3.9931    0.9756 C   0  0  0  0  0  0  0  0  0  0  0  0
   -4.4896    3.3008    2.1174 C   0  0  0  0  0  0  0  0  0  0  0  0
   -4.7831    4.0395    2.9012 H   0  0  0  0  0  0  0  0  0  0  0  0
   -5.6976    2.7520    1.6426 O   0  0  0  0  0  0  0  0  0  0  0  0
   -3.6436    2.1940    2.7342 C   0  0  0  0  0  0  0  0  0  0  0  0
   -3.2535    1.1446    1.6825 C   0  0  0  0  0  0  0  0  0  0  0  0
   -2.5766    1.7375    0.4150 C   0  0  0  0  0  0  0  0  0  0  0  0
   -3.4641    1.4691   -0.8237 C   0  0  0  0  0  0  0  0  0  0  0  0
   -1.1570    1.1111    0.2504 C   0  0  0  0  0  0  0  0  0  0  0  0
   -0.6568    1.1851    1.2508 H   0  0  0  0  0  0  0  0  0  0  0  0
   -1.1535   -0.3906   -0.1182 C   0  0  0  0  0  0  0  0  0  0  0  0
    0.2422   -1.0022   -0.3659 C   0  0  0  0  0  0  0  0  0  0  0  0
    0.8962    0.3591   -3.5677 H   0  0  0  0  0  0  0  0  0  0  0  0
    0.3757   -1.3146   -3.2211 H   0  0  0  0  0  0  0  0  0  0  0  0
   -0.6908    0.0534   -2.8296 H   0  0  0  0  0  0  0  0  0  0  0  0
    5.1872   -0.8952   -1.8216 H   0  0  0  0  0  0  0  0  0  0  0  0
    6.1851   -3.0567   -2.0918 H   0  0  0  0  0  0  0  0  0  0  0  0
    4.7412   -5.0455   -2.2112 H   0  0  0  0  0  0  0  0  0  0  0  0
    1.4210   -2.8912   -1.8618 H   0  0  0  0  0  0  0  0  0  0  0  0
    4.1970    0.9215   -1.9803 H   0  0  0  0  0  0  0  0  0  0  0  0
    2.6992    2.7334   -1.0010 H   0  0  0  0  0  0  0  0  0  0  0  0
    1.9086    2.3128   -2.5895 H   0  0  0  0  0  0  0  0  0  0  0  0
    0.6181    3.3520    0.7260 H   0  0  0  0  0  0  0  0  0  0  0  0
    0.3756    3.9924   -0.9404 H   0  0  0  0  0  0  0  0  0  0  0  0
   -1.3703    5.0455    0.4242 H   0  0  0  0  0  0  0  0  0  0  0  0
   -3.4921    5.0309    1.2953 H   0  0  0  0  0  0  0  0  0  0  0  0
   -4.4053    4.1110    0.0849 H   0  0  0  0  0  0  0  0  0  0  0  0
   -6.1851    2.3737    2.3782 H   0  0  0  0  0  0  0  0  0  0  0  0
   -4.2056    1.7083    3.5677 H   0  0  0  0  0  0  0  0  0  0  0  0
   -2.7230    2.6374    3.1840 H   0  0  0  0  0  0  0  0  0  0  0  0
   -4.1607    0.5629    1.3975 H   0  0  0  0  0  0  0  0  0  0  0  0
   -2.5973    0.4033    2.1937 H   0  0  0  0  0  0  0  0  0  0  0  0
   -4.4668    1.9405   -0.7307 H   0  0  0  0  0  0  0  0  0  0  0  0
   -3.0076    1.8669   -1.7567 H   0  0  0  0  0  0  0  0  0  0  0  0
   -3.6705    0.3883   -0.9787 H   0  0  0  0  0  0  0  0  0  0  0  0
   -1.6626   -0.9822    0.6784 H   0  0  0  0  0  0  0  0  0  0  0  0
   -1.7546   -0.5563   -1.0382 H   0  0  0  0  0  0  0  0  0  0  0  0
    0.0817   -2.0617   -0.6597 H   0  0  0  0  0  0  0  0  0  0  0  0
    0.8113   -1.0298    0.5928 H   0  0  0  0  0  0  0  0  0  0  0  0
  2  1  1  0      
  1 31  1  0      
  1 32  1  0      
  1 33  1  0      
  2  3  1  0      
  2 12  1  0      
  2 30  1  0      
  3  4  1  0      
  3 10  2  0      
  4  5  1  0      
  4  9  2  0      
  5  6  2  0      
  5 34  1  0      
  6  7  1  0      
  6 35  1  0      
  7  8  2  0      
  7 36  1  0      
  8  9  1  0      
  9 37  1  0      
 10 11  1  0      
 10 38  1  0      
 11 12  1  0      
 11 39  1  0      
 11 40  1  0      
 12 13  1  0      
 12 14  1  0      
 14 15  1  0      
 14 16  1  0      
 14 27  1  0      
 16 17  1  0      
 16 41  1  0      
 16 42  1  0      
 17 18  2  0      
 17 43  1  0      
 18 19  1  0      
 18 25  1  0      
 19 20  1  0      
 19 44  1  0      
 19 45  1  0      
 20 21  1  0      
 20 22  1  0      
 20 23  1  0      
 22 46  1  0      
 23 24  1  0      
 23 47  1  0      
 23 48  1  0      
 24 25  1  0      
 24 49  1  0      
 24 50  1  0      
 25 26  1  0      
 25 27  1  0      
 26 51  1  0      
 26 52  1  0      
 26 53  1  0      
 27 28  1  0      
 27 29  1  0      
 29 30  1  0      
 29 54  1  0      
 29 55  1  0      
 30 56  1  0      
 30 57  1  0      
M  END
