
  Chem3D Core 15.011261511283D

 43 45  0  0  0  0  0  0  0  0999 V2000
    1.3918    1.9442    1.1898 S   0  0  0  0  0  0  0  0  0  0  0  0
    0.2799    2.4462    2.0005 O   0  0  0  0  0  0  0  0  0  0  0  0
    2.6097    2.7607    1.0734 O   0  0  0  0  0  0  0  0  0  0  0  0
    2.1549   -3.8950    0.8002 O   0  0  0  0  0  0  0  0  0  0  0  0
    1.7724   -3.2533   -2.1471 O   0  0  0  0  0  0  0  0  0  0  0  0
    0.9075    2.6354   -0.2970 N   0  0  0  0  0  0  0  0  0  0  0  0
   -1.3452    0.9059   -0.8049 N   0  0  0  0  0  0  0  0  0  0  0  0
   -2.5526    2.6129   -0.4480 N   0  0  0  0  0  0  0  0  0  0  0  0
    1.6525    0.1758    1.1841 C   0  0  0  0  0  0  0  0  0  0  0  0
   -0.3159    2.9964   -0.3854 C   0  0  0  0  0  0  0  0  0  0  0  0
   -1.3676    2.1567   -0.5506 C   0  0  0  0  0  0  0  0  0  0  0  0
    2.7804   -0.3565    0.6885 C   0  0  0  0  0  0  0  0  0  0  0  0
    0.7025   -0.6595    1.6332 C   0  0  0  0  0  0  0  0  0  0  0  0
   -0.5489    4.3160   -0.2324 C   0  0  0  0  0  0  0  0  0  0  0  0
   -0.5529   -0.0127   -1.1933 C   0  0  0  0  0  0  0  0  0  0  0  0
    2.9120   -1.6883    0.5877 C   0  0  0  0  0  0  0  0  0  0  0  0
    0.8562   -1.9901    1.5362 C   0  0  0  0  0  0  0  0  0  0  0  0
    1.9503   -2.5476    0.9786 C   0  0  0  0  0  0  0  0  0  0  0  0
   -1.8097    4.7627   -0.1865 C   0  0  0  0  0  0  0  0  0  0  0  0
    0.6812    0.1366   -1.7058 C   0  0  0  0  0  0  0  0  0  0  0  0
   -1.0344   -1.2698   -1.1288 C   0  0  0  0  0  0  0  0  0  0  0  0
   -2.7779    3.8446   -0.2813 C   0  0  0  0  0  0  0  0  0  0  0  0
    1.4295   -0.9214   -2.0540 C   0  0  0  0  0  0  0  0  0  0  0  0
   -0.2727   -2.3288   -1.4432 C   0  0  0  0  0  0  0  0  0  0  0  0
    0.9800   -2.1764   -1.9003 C   0  0  0  0  0  0  0  0  0  0  0  0
    1.2203   -4.7988    1.3422 C   0  0  0  0  0  0  0  0  0  0  0  0
    1.4627    3.5309   -0.3455 H   0  0  0  0  0  0  0  0  0  0  0  0
   -2.3095    0.5023   -0.6695 H   0  0  0  0  0  0  0  0  0  0  0  0
    1.6207   -3.8864   -1.4233 H   0  0  0  0  0  0  0  0  0  0  0  0
    3.5964    0.2911    0.3270 H   0  0  0  0  0  0  0  0  0  0  0  0
   -0.2367   -0.2614    2.0533 H   0  0  0  0  0  0  0  0  0  0  0  0
    0.2652    5.0476   -0.0910 H   0  0  0  0  0  0  0  0  0  0  0  0
    3.8366   -2.0951    0.1428 H   0  0  0  0  0  0  0  0  0  0  0  0
    0.0236   -2.6145    1.8968 H   0  0  0  0  0  0  0  0  0  0  0  0
   -2.0411    5.8297   -0.0392 H   0  0  0  0  0  0  0  0  0  0  0  0
    1.1246    1.1237   -1.8873 H   0  0  0  0  0  0  0  0  0  0  0  0
   -2.0507   -1.4709   -0.7464 H   0  0  0  0  0  0  0  0  0  0  0  0
   -3.8366    4.1491   -0.2239 H   0  0  0  0  0  0  0  0  0  0  0  0
    2.4487   -0.7613   -2.4453 H   0  0  0  0  0  0  0  0  0  0  0  0
   -0.6723   -3.3476   -1.3049 H   0  0  0  0  0  0  0  0  0  0  0  0
    1.5839   -5.8297    1.1323 H   0  0  0  0  0  0  0  0  0  0  0  0
    1.1524   -4.6689    2.4453 H   0  0  0  0  0  0  0  0  0  0  0  0
    0.2307   -4.6758    0.8486 H   0  0  0  0  0  0  0  0  0  0  0  0
  1  2  2  0      
  1  3  2  0      
  1  6  1  0      
  1  9  1  0      
  4 18  1  0      
  4 26  1  0      
  5 25  1  0      
  5 29  1  0      
  6 10  1  0      
  6 27  1  0      
  7 11  1  0      
  7 15  1  0      
  7 28  1  0      
 11  8  2  0      
  8 22  1  0      
  9 12  1  0      
  9 13  2  0      
 10 11  1  0      
 14 10  2  0      
 12 16  2  0      
 12 30  1  0      
 17 13  1  0      
 13 31  1  0      
 19 14  1  0      
 14 32  1  0      
 15 20  1  0      
 15 21  2  0      
 16 18  1  0      
 16 33  1  0      
 18 17  2  0      
 17 34  1  0      
 19 22  2  0      
 19 35  1  0      
 20 23  2  0      
 20 36  1  0      
 24 21  1  0      
 21 37  1  0      
 22 38  1  0      
 23 25  1  0      
 23 39  1  0      
 25 24  2  0      
 24 40  1  0      
 26 41  1  0      
 26 42  1  0      
 26 43  1  0      
M  END
