
  Chem3D Core 15.001121613283D

 59 64  0  0  0  0  0  0  0  0999 V2000
   -5.2735   -1.1460    1.3328 O   0  0  0  0  0  0  0  0  0  0  0  0
    7.0875   -1.1391    2.0308 O   0  0  0  0  0  0  0  0  0  0  0  0
    7.0470   -1.7990    4.1304 O   0  0  0  0  0  0  0  0  0  0  0  0
   -3.8206   -0.3850   -1.0533 C   0  0  0  0  0  0  0  0  0  0  0  0
   -3.1583   -0.7934    0.2942 C   0  0  0  0  0  0  0  0  0  0  0  0
   -2.8152   -0.0840   -2.2032 C   0  0  0  0  0  0  0  0  0  0  0  0
   -4.6454    0.9149   -0.8816 C   0  0  0  0  0  0  0  0  0  0  0  0
   -4.7284   -1.5189   -1.5921 C   0  0  0  0  0  0  0  0  0  0  0  0
   -3.5087    0.3183   -3.5171 C   0  0  0  0  0  0  0  0  0  0  0  0
   -5.3685    1.3039   -2.1837 C   0  0  0  0  0  0  0  0  0  0  0  0
   -5.4503   -1.1061   -2.8870 C   0  0  0  0  0  0  0  0  0  0  0  0
   -3.8991   -1.1483    1.3741 C   0  0  0  0  0  0  0  0  0  0  0  0
   -1.8126   -0.8049    0.4216 C   0  0  0  0  0  0  0  0  0  0  0  0
   -4.3393    1.5888   -3.2865 C   0  0  0  0  0  0  0  0  0  0  0  0
   -4.4195   -0.8235   -3.9881 C   0  0  0  0  0  0  0  0  0  0  0  0
   -6.2909    0.1551   -2.6251 C   0  0  0  0  0  0  0  0  0  0  0  0
   -1.0977   -1.1253    1.5226 C   0  0  0  0  0  0  0  0  0  0  0  0
    0.2653   -1.1185    1.5798 C   0  0  0  0  0  0  0  0  0  0  0  0
   -3.2173   -1.4522    2.4937 C   0  0  0  0  0  0  0  0  0  0  0  0
   -1.8801   -1.4492    2.5697 C   0  0  0  0  0  0  0  0  0  0  0  0
    2.3055   -1.4565    2.7752 C   0  0  0  0  0  0  0  0  0  0  0  0
    0.9610   -1.4539    2.6912 C   0  0  0  0  0  0  0  0  0  0  0  0
    3.0446   -1.1099    1.7092 C   0  0  0  0  0  0  0  0  0  0  0  0
    1.0520   -0.7783    0.5339 C   0  0  0  0  0  0  0  0  0  0  0  0
    2.3934   -0.7705    0.5867 C   0  0  0  0  0  0  0  0  0  0  0  0
    4.3885   -1.1084    1.7805 C   0  0  0  0  0  0  0  0  0  0  0  0
    2.9453   -1.8003    3.9072 C   0  0  0  0  0  0  0  0  0  0  0  0
    5.0344   -1.4518    2.9122 C   0  0  0  0  0  0  0  0  0  0  0  0
    4.2858   -1.7984    3.9756 C   0  0  0  0  0  0  0  0  0  0  0  0
   -6.0136   -1.1939    2.5306 C   0  0  0  0  0  0  0  0  0  0  0  0
    6.4000   -1.4511    2.9860 C   0  0  0  0  0  0  0  0  0  0  0  0
    6.4240   -2.0312    4.8337 H   0  0  0  0  0  0  0  0  0  0  0  0
   -2.1395    0.7605   -1.9268 H   0  0  0  0  0  0  0  0  0  0  0  0
   -2.1856   -0.9809   -2.4160 H   0  0  0  0  0  0  0  0  0  0  0  0
   -5.4226    0.8227   -0.0929 H   0  0  0  0  0  0  0  0  0  0  0  0
   -3.9753    1.7438   -0.5534 H   0  0  0  0  0  0  0  0  0  0  0  0
   -5.5203   -1.8091   -0.8696 H   0  0  0  0  0  0  0  0  0  0  0  0
   -4.1192   -2.4365   -1.7670 H   0  0  0  0  0  0  0  0  0  0  0  0
   -2.7392    0.5210   -4.3037 H   0  0  0  0  0  0  0  0  0  0  0  0
   -5.9805    2.2243   -2.0094 H   0  0  0  0  0  0  0  0  0  0  0  0
   -6.1219   -1.9362   -3.2213 H   0  0  0  0  0  0  0  0  0  0  0  0
   -1.2600   -0.5209   -0.4736 H   0  0  0  0  0  0  0  0  0  0  0  0
   -3.6787    2.4365   -2.9885 H   0  0  0  0  0  0  0  0  0  0  0  0
   -4.8521    1.8941   -4.2285 H   0  0  0  0  0  0  0  0  0  0  0  0
   -3.8179   -1.7386   -4.1989 H   0  0  0  0  0  0  0  0  0  0  0  0
   -4.9316   -0.5458   -4.9390 H   0  0  0  0  0  0  0  0  0  0  0  0
   -7.0555   -0.0479   -1.8389 H   0  0  0  0  0  0  0  0  0  0  0  0
   -6.8466    0.4430   -3.5483 H   0  0  0  0  0  0  0  0  0  0  0  0
   -3.7525   -1.7318    3.4157 H   0  0  0  0  0  0  0  0  0  0  0  0
   -1.4874   -1.7297    3.5575 H   0  0  0  0  0  0  0  0  0  0  0  0
    0.4511   -1.7552    3.6164 H   0  0  0  0  0  0  0  0  0  0  0  0
    0.6587   -0.4777   -0.4479 H   0  0  0  0  0  0  0  0  0  0  0  0
    2.9585   -0.4779   -0.3160 H   0  0  0  0  0  0  0  0  0  0  0  0
    4.9497   -0.8157    0.8776 H   0  0  0  0  0  0  0  0  0  0  0  0
    2.3784   -2.0928    4.8084 H   0  0  0  0  0  0  0  0  0  0  0  0
    4.7315   -2.0928    4.9390 H   0  0  0  0  0  0  0  0  0  0  0  0
   -7.0875   -1.0613    2.2685 H   0  0  0  0  0  0  0  0  0  0  0  0
   -5.9061   -2.1879    3.0187 H   0  0  0  0  0  0  0  0  0  0  0  0
   -5.7157   -0.3595    3.2043 H   0  0  0  0  0  0  0  0  0  0  0  0
  1 12  1  0      
  1 30  1  0      
  2 31  2  0      
  3 31  1  0      
  3 32  1  0      
  4  5  1  0      
  6  4  1  0      
  4  7  1  0      
  4  8  1  0      
  5 12  1  0      
  5 13  2  0      
  6  9  1  0      
  6 33  1  0      
  6 34  1  0      
  7 10  1  0      
  7 35  1  0      
  7 36  1  0      
 11  8  1  0      
  8 37  1  0      
  8 38  1  0      
  9 14  1  0      
 15  9  1  0      
  9 39  1  0      
 10 14  1  0      
 10 16  1  0      
 10 40  1  0      
 11 15  1  0      
 16 11  1  0      
 11 41  1  0      
 12 19  2  0      
 17 13  1  0      
 13 42  1  0      
 14 43  1  0      
 14 44  1  0      
 15 45  1  0      
 15 46  1  0      
 16 47  1  0      
 16 48  1  0      
 17 18  1  0      
 20 17  2  0      
 18 22  2  0      
 24 18  1  0      
 19 20  1  0      
 19 49  1  0      
 20 50  1  0      
 22 21  1  0      
 21 23  1  0      
 21 27  2  0      
 22 51  1  0      
 23 25  1  0      
 26 23  2  0      
 24 25  2  0      
 24 52  1  0      
 25 53  1  0      
 28 26  1  0      
 26 54  1  0      
 27 29  1  0      
 27 55  1  0      
 29 28  2  0      
 28 31  1  0      
 29 56  1  0      
 30 57  1  0      
 30 58  1  0      
 30 59  1  0      
M  END
