
  Chem3D Core 15.001121613313D

 59 62  0  0  0  0  0  0  0  0999 V2000
   -0.3866    3.1726    1.4531 C   0  0  0  0  0  0  0  0  0  0  0  0
    0.6912    3.9355    1.1777 C   0  0  0  0  0  0  0  0  0  0  0  0
    1.8216    3.3843    0.7059 C   0  0  0  0  0  0  0  0  0  0  0  0
    1.9551    2.0644    0.4845 C   0  0  0  0  0  0  0  0  0  0  0  0
    0.8400    1.3133    0.6157 C   0  0  0  0  0  0  0  0  0  0  0  0
   -0.2832    1.8826    1.0871 C   0  0  0  0  0  0  0  0  0  0  0  0
   -1.4944    3.7679    1.9591 C   0  0  0  0  0  0  0  0  0  0  0  0
   -1.4779    5.0379    2.0443 N   0  0  0  0  0  0  0  0  0  0  0  0
   -0.4277    5.6762    1.7551 C   0  0  0  0  0  0  0  0  0  0  0  0
    0.6635    5.1887    1.3517 N   0  0  0  0  0  0  0  0  0  0  0  0
   -2.5932    3.2737    2.3833 N   0  0  0  0  0  0  0  0  0  0  0  0
   -3.1323    2.1793    2.7558 C   0  0  0  0  0  0  0  0  0  0  0  0
   -4.4641    2.2278    2.9685 C   0  0  0  0  0  0  0  0  0  0  0  0
   -5.1648    1.1520    3.3663 C   0  0  0  0  0  0  0  0  0  0  0  0
   -4.5385   -0.0162    3.5925 C   0  0  0  0  0  0  0  0  0  0  0  0
   -3.2075   -0.0671    3.4409 C   0  0  0  0  0  0  0  0  0  0  0  0
   -2.5207    1.0164    3.0460 C   0  0  0  0  0  0  0  0  0  0  0  0
   -5.1973   -1.0911    3.9993 F   0  0  0  0  0  0  0  0  0  0  0  0
   -6.8770    1.2886    3.5827 Cl  0  0  0  0  0  0  0  0  0  0  0  0
    0.9643    0.0157    0.2594 N   0  0  0  0  0  0  0  0  0  0  0  0
    0.1377   -1.0701    0.3187 C   0  0  0  0  0  0  0  0  0  0  0  0
   -0.9707   -1.0518    0.7948 O   0  0  0  0  0  0  0  0  0  0  0  0
    0.7331   -2.1711   -0.2137 C   0  0  0  0  0  0  0  0  0  0  0  0
    0.1440   -3.3768   -0.2785 C   0  0  0  0  0  0  0  0  0  0  0  0
    0.8069   -4.5953   -0.8800 C   0  0  0  0  0  0  0  0  0  0  0  0
    0.4593   -4.7418   -2.2897 N   0  0  0  0  0  0  0  0  0  0  0  0
    1.2741   -5.7760   -2.9124 C   0  0  0  0  0  0  0  0  0  0  0  0
   -0.9548   -5.0363   -2.4734 C   0  0  0  0  0  0  0  0  0  0  0  0
    3.1121    1.5693   -0.0665 O   0  0  0  0  0  0  0  0  0  0  0  0
    4.0029    1.0358    0.8657 C   0  0  0  0  0  0  0  0  0  0  0  0
    5.1993    0.4112    0.1763 C   0  0  0  0  0  0  0  0  0  0  0  0
    6.2022    0.3275    1.1571 O   0  0  0  0  0  0  0  0  0  0  0  0
    5.9918    1.3616    2.0914 C   0  0  0  0  0  0  0  0  0  0  0  0
    4.7101    2.0937    1.7013 C   0  0  0  0  0  0  0  0  0  0  0  0
    2.6844    4.0362    0.4820 H   0  0  0  0  0  0  0  0  0  0  0  0
   -1.1983    1.2888    1.0810 H   0  0  0  0  0  0  0  0  0  0  0  0
   -0.4624    6.7718    1.8818 H   0  0  0  0  0  0  0  0  0  0  0  0
   -3.2972    4.0518    2.4901 H   0  0  0  0  0  0  0  0  0  0  0  0
   -5.0171    3.1683    2.7951 H   0  0  0  0  0  0  0  0  0  0  0  0
   -2.6706   -1.0008    3.6799 H   0  0  0  0  0  0  0  0  0  0  0  0
   -1.4259    0.9175    3.0483 H   0  0  0  0  0  0  0  0  0  0  0  0
    1.8903   -0.1497   -0.1068 H   0  0  0  0  0  0  0  0  0  0  0  0
    1.7556   -2.0881   -0.6226 H   0  0  0  0  0  0  0  0  0  0  0  0
   -0.8804   -3.5231    0.1034 H   0  0  0  0  0  0  0  0  0  0  0  0
    1.9108   -4.4666   -0.7776 H   0  0  0  0  0  0  0  0  0  0  0  0
    0.5404   -5.5026   -0.2894 H   0  0  0  0  0  0  0  0  0  0  0  0
    1.0452   -5.8634   -3.9993 H   0  0  0  0  0  0  0  0  0  0  0  0
    2.3581   -5.5287   -2.8400 H   0  0  0  0  0  0  0  0  0  0  0  0
    1.1103   -6.7718   -2.4400 H   0  0  0  0  0  0  0  0  0  0  0  0
   -1.2010   -5.1422   -3.5549 H   0  0  0  0  0  0  0  0  0  0  0  0
   -1.5957   -4.2087   -2.0952 H   0  0  0  0  0  0  0  0  0  0  0  0
   -1.2531   -5.9770   -1.9563 H   0  0  0  0  0  0  0  0  0  0  0  0
    3.4927    0.2785    1.5068 H   0  0  0  0  0  0  0  0  0  0  0  0
    4.9861   -0.6037   -0.2277 H   0  0  0  0  0  0  0  0  0  0  0  0
    5.5720    1.0602   -0.6505 H   0  0  0  0  0  0  0  0  0  0  0  0
    6.8770    2.0371    2.1048 H   0  0  0  0  0  0  0  0  0  0  0  0
    5.8891    0.8923    3.0977 H   0  0  0  0  0  0  0  0  0  0  0  0
    4.1123    2.4257    2.5799 H   0  0  0  0  0  0  0  0  0  0  0  0
    4.9608    2.9849    1.0782 H   0  0  0  0  0  0  0  0  0  0  0  0
  2  1  1  0      
  1  6  1  0      
  7  1  2  0      
  3  2  1  0      
  2 10  2  0      
  4  3  2  0      
  3 35  1  0      
  4  5  1  0      
  4 29  1  0      
  6  5  2  0      
  5 20  1  0      
  6 36  1  0      
  8  7  1  0      
  7 11  1  0      
  9  8  2  0      
 10  9  1  0      
  9 37  1  0      
 11 12  1  0      
 11 38  1  0      
 12 13  1  0      
 12 17  2  0      
 13 14  2  0      
 13 39  1  0      
 14 15  1  0      
 14 19  1  0      
 15 16  2  0      
 15 18  1  0      
 16 17  1  0      
 16 40  1  0      
 17 41  1  0      
 20 21  1  0      
 20 42  1  0      
 21 22  2  0      
 21 23  1  0      
 23 24  2  0      
 23 43  1  0      
 24 25  1  0      
 24 44  1  0      
 25 26  1  0      
 25 45  1  0      
 25 46  1  0      
 26 27  1  0      
 26 28  1  0      
 27 47  1  0      
 27 48  1  0      
 27 49  1  0      
 28 50  1  0      
 28 51  1  0      
 28 52  1  0      
 29 30  1  0      
 31 30  1  0      
 30 34  1  0      
 30 53  1  0      
 31 32  1  0      
 31 54  1  0      
 31 55  1  0      
 33 32  1  0      
 34 33  1  0      
 33 56  1  0      
 33 57  1  0      
 34 58  1  0      
 34 59  1  0      
M  END
