
  Chem3D Core 15.003181609383D

 50 53  0  0  0  0  0  0  0  0999 V2000
    2.5620    3.5700    1.3366 O   0  0  0  0  0  0  0  0  0  0  0  0
    1.9375    2.5787    1.0757 C   0  0  0  0  0  0  0  0  0  0  0  0
    2.5500    1.6270    0.3132 N   0  0  0  0  0  0  0  0  0  0  0  0
    2.0763    0.6950   -0.5391 C   0  0  0  0  0  0  0  0  0  0  0  0
    2.9454   -0.2218   -0.9960 C   0  0  0  0  0  0  0  0  0  0  0  0
    2.5345   -1.1880   -1.8304 C   0  0  0  0  0  0  0  0  0  0  0  0
    1.2534   -1.2408   -2.2247 C   0  0  0  0  0  0  0  0  0  0  0  0
    0.3656   -0.3291   -1.7920 C   0  0  0  0  0  0  0  0  0  0  0  0
   -1.0814   -0.3392   -2.2301 C   0  0  0  0  0  0  0  0  0  0  0  0
   -1.3569   -1.2480   -3.1511 F   0  0  0  0  0  0  0  0  0  0  0  0
   -1.8434   -0.5843   -1.1741 F   0  0  0  0  0  0  0  0  0  0  0  0
   -1.4426    0.8451   -2.6995 F   0  0  0  0  0  0  0  0  0  0  0  0
    0.8028    0.6374   -0.9646 C   0  0  0  0  0  0  0  0  0  0  0  0
    0.6674    2.4926    1.5698 N   0  0  0  0  0  0  0  0  0  0  0  0
   -0.1368    1.4615    1.9028 C   0  0  0  0  0  0  0  0  0  0  0  0
    0.4309    0.2463    2.0268 C   0  0  0  0  0  0  0  0  0  0  0  0
   -0.2617   -0.8494    2.3660 C   0  0  0  0  0  0  0  0  0  0  0  0
    0.5374   -2.4615    2.4341 S   0  0  0  0  0  0  0  0  0  0  0  0
    1.9861   -2.3552    2.5506 O   0  0  0  0  0  0  0  0  0  0  0  0
   -0.2635   -3.4451    3.1511 O   0  0  0  0  0  0  0  0  0  0  0  0
    0.1958   -2.4792    0.7622 N   0  0  0  0  0  0  0  0  0  0  0  0
    0.4912   -3.7468    0.1344 C   0  0  0  0  0  0  0  0  0  0  0  0
   -0.6018   -4.7725    0.2694 C   0  0  0  0  0  0  0  0  0  0  0  0
   -0.4196   -4.0305   -1.0307 C   0  0  0  0  0  0  0  0  0  0  0  0
   -1.5619   -0.6929    2.6417 C   0  0  0  0  0  0  0  0  0  0  0  0
   -2.1258    0.5207    2.5475 C   0  0  0  0  0  0  0  0  0  0  0  0
   -1.4575    1.6306    2.1594 C   0  0  0  0  0  0  0  0  0  0  0  0
   -2.1508    2.7875    2.0119 C   0  0  0  0  0  0  0  0  0  0  0  0
   -1.8132    3.9057    1.3453 C   0  0  0  0  0  0  0  0  0  0  0  0
   -2.7756    4.8324    1.4126 C   0  0  0  0  0  0  0  0  0  0  0  0
   -3.9275    4.3820    2.1886 S   0  0  0  0  0  0  0  0  0  0  0  0
   -3.3873    3.0507    2.4825 C   0  0  0  0  0  0  0  0  0  0  0  0
    3.5547    1.5837    0.3874 H   0  0  0  0  0  0  0  0  0  0  0  0
    4.0012   -0.1992   -0.6768 H   0  0  0  0  0  0  0  0  0  0  0  0
    3.2519   -1.9440   -2.1915 H   0  0  0  0  0  0  0  0  0  0  0  0
    0.9430   -2.0445   -2.9115 H   0  0  0  0  0  0  0  0  0  0  0  0
    0.0768    1.4004   -0.6466 H   0  0  0  0  0  0  0  0  0  0  0  0
    0.2337    3.3764    1.7631 H   0  0  0  0  0  0  0  0  0  0  0  0
    1.5119    0.1174    1.8744 H   0  0  0  0  0  0  0  0  0  0  0  0
    0.7307   -1.7470    0.2898 H   0  0  0  0  0  0  0  0  0  0  0  0
    1.5615   -3.9416    0.1218 H   0  0  0  0  0  0  0  0  0  0  0  0
   -0.2916   -5.8153    0.3102 H   0  0  0  0  0  0  0  0  0  0  0  0
   -1.4852   -4.5312    0.8583 H   0  0  0  0  0  0  0  0  0  0  0  0
   -1.1778   -3.2967   -1.2972 H   0  0  0  0  0  0  0  0  0  0  0  0
    0.0103   -4.5735   -1.8709 H   0  0  0  0  0  0  0  0  0  0  0  0
   -2.1813   -1.5608    2.9244 H   0  0  0  0  0  0  0  0  0  0  0  0
   -3.2068    0.5250    2.7563 H   0  0  0  0  0  0  0  0  0  0  0  0
   -0.9047    4.0915    0.7593 H   0  0  0  0  0  0  0  0  0  0  0  0
   -2.7311    5.8153    0.9233 H   0  0  0  0  0  0  0  0  0  0  0  0
   -4.0012    2.3818    3.1003 H   0  0  0  0  0  0  0  0  0  0  0  0
  1  2  2  0      
  2  3  1  0      
  2 14  1  0      
  3  4  1  0      
  3 33  1  0      
  4  5  1  0      
  4 13  2  0      
  5  6  2  0      
  5 34  1  0      
  6  7  1  0      
  6 35  1  0      
  7  8  2  0      
  7 36  1  0      
  8  9  1  0      
  8 13  1  0      
  9 10  1  0      
  9 11  1  0      
  9 12  1  0      
 13 37  1  0      
 14 15  1  0      
 14 38  1  0      
 15 16  1  0      
 15 27  2  0      
 16 17  2  0      
 16 39  1  0      
 17 18  1  0      
 17 25  1  0      
 18 19  2  0      
 18 20  2  0      
 18 21  1  0      
 21 22  1  0      
 21 40  1  0      
 22 23  1  0      
 22 24  1  0      
 22 41  1  0      
 23 24  1  0      
 23 42  1  0      
 23 43  1  0      
 24 44  1  0      
 24 45  1  0      
 25 26  2  0      
 25 46  1  0      
 26 27  1  0      
 26 47  1  0      
 27 28  1  0      
 29 28  1  0      
 28 32  2  0      
 30 29  2  0      
 29 48  1  0      
 30 31  1  0      
 30 49  1  0      
 32 31  1  0      
 32 50  1  0      
M  END
