
  Chem3D Core 15.001121613313D

 57 61  0  0  0  0  0  0  0  0999 V2000
    0.4141   -7.1622   -3.9722 O   0  0  0  0  0  0  0  0  0  0  0  0
    1.5002   -6.6287   -4.1064 C   0  0  0  0  0  0  0  0  0  0  0  0
    2.4336   -7.3730   -4.7649 O   0  0  0  0  0  0  0  0  0  0  0  0
    1.7887   -5.3704   -3.6390 C   0  0  0  0  0  0  0  0  0  0  0  0
    3.0264   -4.8800   -3.8483 C   0  0  0  0  0  0  0  0  0  0  0  0
    3.3944   -3.6625   -3.4284 C   0  0  0  0  0  0  0  0  0  0  0  0
    2.5286   -2.8748   -2.7719 C   0  0  0  0  0  0  0  0  0  0  0  0
    2.9730   -1.7353   -2.4158 N   0  0  0  0  0  0  0  0  0  0  0  0
    2.5415   -0.7044   -1.8006 C   0  0  0  0  0  0  0  0  0  0  0  0
    3.4046    0.2193   -1.7001 N   0  0  0  0  0  0  0  0  0  0  0  0
    3.0777    1.2860   -1.1181 C   0  0  0  0  0  0  0  0  0  0  0  0
    1.8607    1.4884   -0.5924 C   0  0  0  0  0  0  0  0  0  0  0  0
    1.6094    2.8349    0.0412 C   0  0  0  0  0  0  0  0  0  0  0  0
    0.2170    3.0942   -0.3520 N   0  0  0  0  0  0  0  0  0  0  0  0
   -0.5112    2.7352    0.6178 C   0  0  0  0  0  0  0  0  0  0  0  0
   -0.7339    3.6381    1.6152 C   0  0  0  0  0  0  0  0  0  0  0  0
   -0.5180    4.9718    1.4201 C   0  0  0  0  0  0  0  0  0  0  0  0
   -0.1272    5.4453    0.1849 O   0  0  0  0  0  0  0  0  0  0  0  0
   -0.1723    6.8254   -0.0946 C   0  0  0  0  0  0  0  0  0  0  0  0
   -0.7789    5.8149    2.4422 C   0  0  0  0  0  0  0  0  0  0  0  0
   -1.1881    5.4005    3.6466 C   0  0  0  0  0  0  0  0  0  0  0  0
   -1.3346    4.0900    3.8528 C   0  0  0  0  0  0  0  0  0  0  0  0
   -1.1095    3.2280    2.8514 C   0  0  0  0  0  0  0  0  0  0  0  0
   -1.2010    1.9469    3.1796 F   0  0  0  0  0  0  0  0  0  0  0  0
   -0.9706    1.4651    0.4881 C   0  0  0  0  0  0  0  0  0  0  0  0
   -2.2026    1.2388    0.9992 C   0  0  0  0  0  0  0  0  0  0  0  0
   -2.8433    0.0702    0.8820 C   0  0  0  0  0  0  0  0  0  0  0  0
   -4.4259   -0.1571    1.5344 Cl  0  0  0  0  0  0  0  0  0  0  0  0
   -2.2429   -0.9084    0.2027 C   0  0  0  0  0  0  0  0  0  0  0  0
   -1.0276   -0.6830   -0.3142 C   0  0  0  0  0  0  0  0  0  0  0  0
   -0.3287    0.4744   -0.2014 C   0  0  0  0  0  0  0  0  0  0  0  0
    0.9495    0.4906   -0.7019 C   0  0  0  0  0  0  0  0  0  0  0  0
    1.3803   -0.5461   -1.3100 N   0  0  0  0  0  0  0  0  0  0  0  0
    1.2999   -3.3773   -2.5712 C   0  0  0  0  0  0  0  0  0  0  0  0
    0.8861   -4.5985   -2.9780 C   0  0  0  0  0  0  0  0  0  0  0  0
   -0.3907   -5.0573   -2.7383 O   0  0  0  0  0  0  0  0  0  0  0  0
   -1.3164   -4.2684   -2.0269 C   0  0  0  0  0  0  0  0  0  0  0  0
    3.2821   -6.9183   -4.8515 H   0  0  0  0  0  0  0  0  0  0  0  0
    3.8102   -5.4454   -4.3761 H   0  0  0  0  0  0  0  0  0  0  0  0
    4.4259   -3.3264   -3.6369 H   0  0  0  0  0  0  0  0  0  0  0  0
    3.9754   -1.6063   -2.7137 H   0  0  0  0  0  0  0  0  0  0  0  0
    3.8606    2.0607   -1.0654 H   0  0  0  0  0  0  0  0  0  0  0  0
    1.8044    2.7837    1.1378 H   0  0  0  0  0  0  0  0  0  0  0  0
    2.2465    3.6422   -0.3879 H   0  0  0  0  0  0  0  0  0  0  0  0
    0.1009    6.9606   -1.1654 H   0  0  0  0  0  0  0  0  0  0  0  0
   -1.2032    7.2188    0.0507 H   0  0  0  0  0  0  0  0  0  0  0  0
    0.5792    7.3730    0.5164 H   0  0  0  0  0  0  0  0  0  0  0  0
   -0.6597    6.9042    2.3343 H   0  0  0  0  0  0  0  0  0  0  0  0
   -1.3749    6.1195    4.4617 H   0  0  0  0  0  0  0  0  0  0  0  0
   -1.6254    3.7233    4.8515 H   0  0  0  0  0  0  0  0  0  0  0  0
   -2.7891    2.0482    1.4672 H   0  0  0  0  0  0  0  0  0  0  0  0
   -2.7364   -1.8862    0.0669 H   0  0  0  0  0  0  0  0  0  0  0  0
   -0.6391   -1.5731   -0.8272 H   0  0  0  0  0  0  0  0  0  0  0  0
    0.5860   -2.7427   -2.0415 H   0  0  0  0  0  0  0  0  0  0  0  0
   -2.2647   -4.8467   -1.9536 H   0  0  0  0  0  0  0  0  0  0  0  0
   -0.9537   -4.0802   -0.9917 H   0  0  0  0  0  0  0  0  0  0  0  0
   -1.5362   -3.3276   -2.5793 H   0  0  0  0  0  0  0  0  0  0  0  0
  1  2  2  0      
  2  3  1  0      
  2  4  1  0      
  3 38  1  0      
  4  5  1  0      
  4 35  2  0      
  5  6  2  0      
  5 39  1  0      
  6  7  1  0      
  6 40  1  0      
  7  8  1  0      
  7 34  2  0      
  8  9  1  0      
  8 41  1  0      
  9 10  2  0      
  9 33  1  0      
 10 11  1  0      
 11 12  2  0      
 11 42  1  0      
 12 13  1  0      
 12 32  1  0      
 13 14  1  0      
 13 43  1  0      
 13 44  1  0      
 14 15  2  0      
 15 16  1  0      
 15 25  1  0      
 16 17  1  0      
 16 23  2  0      
 17 18  1  0      
 17 20  2  0      
 18 19  1  0      
 19 45  1  0      
 19 46  1  0      
 19 47  1  0      
 20 21  1  0      
 20 48  1  0      
 21 22  2  0      
 21 49  1  0      
 22 23  1  0      
 22 50  1  0      
 23 24  1  0      
 25 26  2  0      
 25 31  1  0      
 26 27  1  0      
 26 51  1  0      
 27 28  1  0      
 27 29  2  0      
 29 30  1  0      
 29 52  1  0      
 30 31  2  0      
 30 53  1  0      
 31 32  1  0      
 32 33  2  0      
 34 35  1  0      
 34 54  1  0      
 35 36  1  0      
 36 37  1  0      
 37 55  1  0      
 37 56  1  0      
 37 57  1  0      
M  END
