
  Chem3D Core 15.003181609533D

 60 63  0  0  0  0  0  0  0  0999 V2000
    0.1040    3.5473   -1.3193 C   0  0  0  0  0  0  0  0  0  0  0  0
    1.4375    3.7057   -1.1157 N   0  0  0  0  0  0  0  0  0  0  0  0
    2.3352    2.6705   -1.1347 C   0  0  0  0  0  0  0  0  0  0  0  0
    1.8452    1.4562   -1.5155 C   0  0  0  0  0  0  0  0  0  0  0  0
    0.5238    1.3587   -1.7601 C   0  0  0  0  0  0  0  0  0  0  0  0
   -0.3959    2.3376   -1.6627 C   0  0  0  0  0  0  0  0  0  0  0  0
   -1.6992    2.0810   -1.9427 C   0  0  0  0  0  0  0  0  0  0  0  0
   -2.4019    1.0082   -2.0120 N   0  0  0  0  0  0  0  0  0  0  0  0
   -3.5790    1.1345   -2.3735 N   0  0  0  0  0  0  0  0  0  0  0  0
   -3.7438    2.3620   -2.6022 C   0  0  0  0  0  0  0  0  0  0  0  0
   -2.5960    3.0004   -2.3548 C   0  0  0  0  0  0  0  0  0  0  0  0
   -1.9414   -0.3160   -1.5284 C   0  0  0  0  0  0  0  0  0  0  0  0
    2.6462    0.3547   -1.6741 C   0  0  0  0  0  0  0  0  0  0  0  0
    3.8482    0.3491   -1.8080 O   0  0  0  0  0  0  0  0  0  0  0  0
    1.9873   -0.8381   -1.5377 N   0  0  0  0  0  0  0  0  0  0  0  0
    2.6522   -2.1394   -1.6277 C   0  0  0  0  0  0  0  0  0  0  0  0
    1.6144   -3.2400   -1.6242 C   0  0  0  0  0  0  0  0  0  0  0  0
    1.8592   -4.4509   -2.1538 C   0  0  0  0  0  0  0  0  0  0  0  0
    0.8995   -5.3880   -2.1336 C   0  0  0  0  0  0  0  0  0  0  0  0
   -0.2827   -5.0758   -1.5801 C   0  0  0  0  0  0  0  0  0  0  0  0
   -0.4181   -3.8354   -1.0818 C   0  0  0  0  0  0  0  0  0  0  0  0
    0.4938   -2.9584   -1.1035 N   0  0  0  0  0  0  0  0  0  0  0  0
   -1.6199   -6.2629   -1.5185 S   0  0  0  0  0  0  0  0  0  0  0  0
   -1.0466   -7.6294   -0.4137 C   0  0  0  0  0  0  0  0  0  0  0  0
   -2.7569   -5.9342   -0.6624 O   0  0  0  0  0  0  0  0  0  0  0  0
   -1.7795   -7.1406   -2.6749 O   0  0  0  0  0  0  0  0  0  0  0  0
    3.4910    2.8715   -0.8381 O   0  0  0  0  0  0  0  0  0  0  0  0
    1.9387    4.9390   -0.8552 C   0  0  0  0  0  0  0  0  0  0  0  0
    2.4077    5.2570    0.3656 C   0  0  0  0  0  0  0  0  0  0  0  0
    2.9253    6.4697    0.6353 C   0  0  0  0  0  0  0  0  0  0  0  0
    2.9115    7.3906   -0.3454 C   0  0  0  0  0  0  0  0  0  0  0  0
    2.4491    7.0928   -1.5691 C   0  0  0  0  0  0  0  0  0  0  0  0
    1.9674    5.8682   -1.8259 C   0  0  0  0  0  0  0  0  0  0  0  0
    3.3863    6.8286    2.0303 C   0  0  0  0  0  0  0  0  0  0  0  0
    2.7699    6.1243    2.9668 F   0  0  0  0  0  0  0  0  0  0  0  0
    4.6840    6.5918    2.1478 F   0  0  0  0  0  0  0  0  0  0  0  0
    3.1966    8.1092    2.3084 F   0  0  0  0  0  0  0  0  0  0  0  0
   -0.7551    4.7294   -0.8965 C   0  0  0  0  0  0  0  0  0  0  0  0
    0.1740    0.4020   -2.1582 H   0  0  0  0  0  0  0  0  0  0  0  0
   -4.6840    2.7941   -2.9668 H   0  0  0  0  0  0  0  0  0  0  0  0
   -2.4767    4.0737   -2.5298 H   0  0  0  0  0  0  0  0  0  0  0  0
   -1.2716   -0.2459   -0.6422 H   0  0  0  0  0  0  0  0  0  0  0  0
   -2.8122   -0.9088   -1.1650 H   0  0  0  0  0  0  0  0  0  0  0  0
   -1.4917   -0.9138   -2.3535 H   0  0  0  0  0  0  0  0  0  0  0  0
    0.9927   -0.8378   -1.3204 H   0  0  0  0  0  0  0  0  0  0  0  0
    3.2480   -2.1913   -2.5686 H   0  0  0  0  0  0  0  0  0  0  0  0
    3.3286   -2.2795   -0.7529 H   0  0  0  0  0  0  0  0  0  0  0  0
    2.8404   -4.6751   -2.6025 H   0  0  0  0  0  0  0  0  0  0  0  0
    1.0890   -6.3841   -2.5652 H   0  0  0  0  0  0  0  0  0  0  0  0
   -1.3663   -3.5159   -0.6172 H   0  0  0  0  0  0  0  0  0  0  0  0
   -1.8349   -8.4086   -0.3044 H   0  0  0  0  0  0  0  0  0  0  0  0
   -0.1292   -8.0994   -0.8351 H   0  0  0  0  0  0  0  0  0  0  0  0
   -0.7972   -7.2191    0.5913 H   0  0  0  0  0  0  0  0  0  0  0  0
    2.3635    4.4982    1.1645 H   0  0  0  0  0  0  0  0  0  0  0  0
    3.2900    8.4086   -0.1564 H   0  0  0  0  0  0  0  0  0  0  0  0
    2.4588    7.8573   -2.3641 H   0  0  0  0  0  0  0  0  0  0  0  0
    1.5900    5.6327   -2.8353 H   0  0  0  0  0  0  0  0  0  0  0  0
   -1.7191    4.4106   -0.4436 H   0  0  0  0  0  0  0  0  0  0  0  0
   -0.3126    5.3200   -0.0653 H   0  0  0  0  0  0  0  0  0  0  0  0
   -0.9279    5.4326   -1.7421 H   0  0  0  0  0  0  0  0  0  0  0  0
  1  2  1  0      
  6  1  2  0      
  1 38  1  0      
  2  3  1  0      
  2 28  1  0      
  4  3  1  0      
  3 27  2  0      
  4  5  2  0      
  4 13  1  0      
  5  6  1  0      
  5 39  1  0      
  6  7  1  0      
  7  8  1  0      
 11  7  2  0      
  8  9  1  0      
  8 12  1  0      
 10  9  2  0      
 10 11  1  0      
 10 40  1  0      
 11 41  1  0      
 12 42  1  0      
 12 43  1  0      
 12 44  1  0      
 13 14  2  0      
 13 15  1  0      
 15 16  1  0      
 15 45  1  0      
 16 17  1  0      
 16 46  1  0      
 16 47  1  0      
 18 17  1  0      
 17 22  2  0      
 19 18  2  0      
 18 48  1  0      
 20 19  1  0      
 19 49  1  0      
 20 21  2  0      
 20 23  1  0      
 22 21  1  0      
 21 50  1  0      
 23 24  1  0      
 23 25  2  0      
 23 26  2  0      
 24 51  1  0      
 24 52  1  0      
 24 53  1  0      
 28 29  1  0      
 28 33  2  0      
 29 30  2  0      
 29 54  1  0      
 30 31  1  0      
 30 34  1  0      
 31 32  2  0      
 31 55  1  0      
 32 33  1  0      
 32 56  1  0      
 33 57  1  0      
 34 35  1  0      
 34 36  1  0      
 34 37  1  0      
 38 58  1  0      
 38 59  1  0      
 38 60  1  0      
M  END
