
  Chem3D Core 15.011061513453D

  0  0  0     0  0              0 V3000
M  V30 BEGIN CTAB
M  V30 COUNTS 92 93 0 0 0
M  V30 BEGIN ATOM
M  V30 1 C 0.091554 3.297070 0.603430 0
M  V30 2 C -0.780030 2.595154 1.389844 0
M  V30 3 C 0.706066 0.744331 1.427414 0
M  V30 4 C 1.567243 1.420134 0.609580 0
M  V30 5 C 1.238250 2.664957 0.237864 0
M  V30 6 O -0.075521 4.428391 0.184224 0
M  V30 7 O 1.006420 -0.382416 1.780222 0
M  V30 8 N 2.688050 0.760707 0.234846 0
M  V30 9 C 3.820513 1.127489 -0.434710 0
M  V30 10 O 4.047959 2.285409 -0.690192 0
M  V30 11 C 4.689581 0.136202 -0.802987 0
M  V30 12 C 5.925329 0.602325 -1.559577 0
M  V30 13 C 4.446589 -1.162175 -0.517270 0
M  V30 14 C 5.191032 -2.223474 -0.874988 0
M  V30 15 C 4.933603 -3.513341 -0.591474 0
M  V30 16 C 2.854416 -4.970144 -0.606603 0
M  V30 17 O 2.272929 -6.016764 0.151394 0
M  V30 18 C 1.717452 -5.772302 1.371843 0
M  V30 19 O 1.411679 -4.677107 1.775382 0
M  V30 20 N 1.559248 -6.835196 2.198769 0
M  V30 21 C 0.505215 -4.228186 -1.148502 0
M  V30 22 C -0.664310 -3.376628 -1.613609 0
M  V30 23 C 1.827450 -4.144571 -1.395035 0
M  V30 24 C 2.409317 -3.217695 -2.434375 0
M  V30 25 C -2.368693 -0.449965 0.456276 0
M  V30 26 C -0.463906 1.341740 1.801634 0
M  V30 27 C -1.390812 0.481439 2.667162 0
M  V30 28 C -2.005666 -0.735717 1.931642 0
M  V30 29 C -3.207333 -1.286211 2.721298 0
M  V30 30 C -2.272888 -1.630818 -0.531130 0
M  V30 31 O -3.277482 -2.585841 -0.311349 0
M  V30 32 C -4.570644 -2.175086 -0.700185 0
M  V30 33 C -0.924954 -2.363218 -0.483064 0
M  V30 34 O 0.152584 -1.453622 -0.415787 0
M  V30 35 C -0.602633 -2.745976 -3.010185 0
M  V30 36 N -1.910226 3.077857 1.735720 0
M  V30 37 C -2.514115 4.395075 1.418880 0
M  V30 38 C -3.917438 4.468913 2.052720 0
M  V30 39 N -4.704230 5.624504 1.630167 0
M  V30 40 C -6.041818 5.564259 2.204811 0
M  V30 41 C -4.067254 6.887675 1.972140 0
M  V30 42 C 3.808129 -4.101161 0.241409 0
M  V30 43 O 4.385483 -4.902686 1.256410 0
M  V30 44 C 5.031126 -4.145723 2.257930 0
M  V30 45 H 1.899281 3.240215 -0.426966 0
M  V30 46 H 2.600224 -0.199470 0.527859 0
M  V30 47 H 6.487531 1.356307 -0.962261 0
M  V30 48 H 6.673079 -0.177599 -1.802044 0
M  V30 49 H 5.631450 1.062658 -2.530816 0
M  V30 50 H 3.542821 -1.415351 0.049685 0
M  V30 51 H 6.099761 -2.074436 -1.478104 0
M  V30 52 H 5.639234 -4.266765 -0.989233 0
M  V30 53 H 3.467815 -5.513686 -1.368257 0
M  V30 54 H 1.172475 -6.668223 3.115626 0
M  V30 55 H 1.840323 -7.749984 1.878787 0
M  V30 56 H 0.169152 -4.963631 -0.400537 0
M  V30 57 H -1.533919 -4.083364 -1.660042 0
M  V30 58 H 3.456369 -3.482959 -2.692915 0
M  V30 59 H 1.880858 -3.310196 -3.405250 0
M  V30 60 H 2.384327 -2.160407 -2.091226 0
M  V30 61 H -1.684736 0.322211 0.038909 0
M  V30 62 H -3.357743 0.056854 0.414640 0
M  V30 63 H -0.820001 0.134521 3.561518 0
M  V30 64 H -2.217340 1.045669 3.142073 0
M  V30 65 H -1.229382 -1.533979 1.962693 0
M  V30 66 H -2.932393 -1.487539 3.781994 0
M  V30 67 H -3.580086 -2.244638 2.297635 0
M  V30 68 H -4.055515 -0.564680 2.721643 0
M  V30 69 H -2.394483 -1.221151 -1.561692 0
M  V30 70 H -5.254009 -3.044082 -0.570973 0
M  V30 71 H -4.940947 -1.352764 -0.052577 0
M  V30 72 H -4.582223 -1.875946 -1.771363 0
M  V30 73 H -0.898019 -2.934446 0.475167 0
M  V30 74 H 0.666465 -1.622811 0.382795 0
M  V30 75 H -1.591983 -2.337668 -3.315801 0
M  V30 76 H -0.340346 -3.504842 -3.781994 0
M  V30 77 H 0.111224 -1.895671 -3.064037 0
M  V30 78 H -2.533554 2.470637 2.313921 0
M  V30 79 H -1.875172 5.200924 1.849159 0
M  V30 80 H -2.628254 4.511313 0.314976 0
M  V30 81 H -4.460667 3.538803 1.752883 0
M  V30 82 H -3.817872 4.441483 3.164372 0
M  V30 83 H -6.673079 6.404339 1.834425 0
M  V30 84 H -6.563987 4.626291 1.906578 0
M  V30 85 H -6.017365 5.611850 3.317760 0
M  V30 86 H -4.709311 7.749984 1.679974 0
M  V30 87 H -3.113705 7.026715 1.416027 0
M  V30 88 H -3.859733 6.964113 3.064030 0
M  V30 89 H 3.202814 -3.310810 0.732984 0
M  V30 90 H 5.450919 -4.855940 3.004807 0
M  V30 91 H 5.865104 -3.550346 1.826937 0
M  V30 92 H 4.300352 -3.482711 2.772141 0
M  V30 END ATOM
M  V30 BEGIN BOND
M  V30 1 1 1 2
M  V30 2 1 1 5
M  V30 3 2 1 6
M  V30 4 2 2 26
M  V30 5 1 2 36
M  V30 6 1 3 4
M  V30 7 2 3 7
M  V30 8 1 3 26
M  V30 9 2 4 5
M  V30 10 1 4 8
M  V30 11 1 5 45
M  V30 12 1 8 9
M  V30 13 1 8 46
M  V30 14 2 9 10
M  V30 15 1 9 11
M  V30 16 1 11 12
M  V30 17 2 11 13
M  V30 18 1 12 47
M  V30 19 1 12 48
M  V30 20 1 12 49
M  V30 21 1 13 14
M  V30 22 1 13 50
M  V30 23 2 14 15
M  V30 24 1 14 51
M  V30 25 1 15 42
M  V30 26 1 15 52
M  V30 27 1 16 17
M  V30 28 1 16 23
M  V30 29 1 16 42
M  V30 30 1 16 53
M  V30 31 1 17 18
M  V30 32 2 18 19
M  V30 33 1 18 20
M  V30 34 1 20 54
M  V30 35 1 20 55
M  V30 36 1 21 22
M  V30 37 2 21 23
M  V30 38 1 21 56
M  V30 39 1 22 33
M  V30 40 1 22 35
M  V30 41 1 22 57
M  V30 42 1 23 24
M  V30 43 1 24 58
M  V30 44 1 24 59
M  V30 45 1 24 60
M  V30 46 1 25 28
M  V30 47 1 25 30
M  V30 48 1 25 61
M  V30 49 1 25 62
M  V30 50 1 26 27
M  V30 51 1 27 28
M  V30 52 1 27 63
M  V30 53 1 27 64
M  V30 54 1 28 29
M  V30 55 1 28 65
M  V30 56 1 29 66
M  V30 57 1 29 67
M  V30 58 1 29 68
M  V30 59 1 30 31
M  V30 60 1 30 33
M  V30 61 1 30 69
M  V30 62 1 31 32
M  V30 63 1 32 70
M  V30 64 1 32 71
M  V30 65 1 32 72
M  V30 66 1 33 34
M  V30 67 1 33 73
M  V30 68 1 34 74
M  V30 69 1 35 75
M  V30 70 1 35 76
M  V30 71 1 35 77
M  V30 72 1 36 37
M  V30 73 1 36 78
M  V30 74 1 37 38
M  V30 75 1 37 79
M  V30 76 1 37 80
M  V30 77 1 38 39
M  V30 78 1 38 81
M  V30 79 1 38 82
M  V30 80 1 39 40
M  V30 81 1 39 41
M  V30 82 1 40 83
M  V30 83 1 40 84
M  V30 84 1 40 85
M  V30 85 1 41 86
M  V30 86 1 41 87
M  V30 87 1 41 88
M  V30 88 1 42 43
M  V30 89 1 42 89
M  V30 90 1 43 44
M  V30 91 1 44 90
M  V30 92 1 44 91
M  V30 93 1 44 92
M  V30 END BOND
M  V30 END CTAB
M  END
