
  Chem3D Core 15.008161521493D

 53 58  0  0  0  0  0  0  0  0999 V2000
    4.4320   -1.6143    3.4140 S   0  0  0  0  0  0  0  0  0  0  0  0
    3.0985   -1.2771    2.6294 C   0  0  0  0  0  0  0  0  0  0  0  0
    2.4236   -2.2499    1.9169 N   0  0  0  0  0  0  0  0  0  0  0  0
    2.8507   -3.6477    1.8123 C   0  0  0  0  0  0  0  0  0  0  0  0
    1.8415   -4.3681    0.9478 C   0  0  0  0  0  0  0  0  0  0  0  0
    1.2319   -5.4927    1.3747 C   0  0  0  0  0  0  0  0  0  0  0  0
    0.3245   -6.1360    0.6199 C   0  0  0  0  0  0  0  0  0  0  0  0
    0.0332   -5.6258   -0.5826 C   0  0  0  0  0  0  0  0  0  0  0  0
   -0.7610   -6.0607   -1.4119 O   0  0  0  0  0  0  0  0  0  0  0  0
   -0.7292   -5.1796   -2.5360 C   0  0  0  0  0  0  0  0  0  0  0  0
    0.2317   -4.2004   -2.1371 O   0  0  0  0  0  0  0  0  0  0  0  0
    0.6287   -4.5101   -1.0170 C   0  0  0  0  0  0  0  0  0  0  0  0
    1.5338   -3.8705   -0.2661 C   0  0  0  0  0  0  0  0  0  0  0  0
    2.5913    0.0110    2.5292 N   0  0  0  0  0  0  0  0  0  0  0  0
    1.2369    0.3065    2.0589 C   0  0  0  0  0  0  0  0  0  0  0  0
    1.3273    0.9558    0.6694 C   0  0  0  0  0  0  0  0  0  0  0  0
    2.1615    2.1799    0.8131 N   0  0  0  0  0  0  0  0  0  0  0  0
    3.5330    1.9536    1.3662 C   0  0  0  0  0  0  0  0  0  0  0  0
    3.3869    1.2269    2.7176 C   0  0  0  0  0  0  0  0  0  0  0  0
    1.7797    3.3660    0.5173 C   0  0  0  0  0  0  0  0  0  0  0  0
    0.5584    3.7284    0.0545 C   0  0  0  0  0  0  0  0  0  0  0  0
   -0.4434    3.0333   -0.1476 O   0  0  0  0  0  0  0  0  0  0  0  0
   -1.3358    3.7636   -0.5809 C   0  0  0  0  0  0  0  0  0  0  0  0
   -2.5745    3.4030   -0.9434 C   0  0  0  0  0  0  0  0  0  0  0  0
   -3.4071    4.3596   -1.3912 C   0  0  0  0  0  0  0  0  0  0  0  0
   -3.0120    5.6440   -1.4738 C   0  0  0  0  0  0  0  0  0  0  0  0
   -1.7694    6.0079   -1.1118 C   0  0  0  0  0  0  0  0  0  0  0  0
   -0.9566    5.0425   -0.6715 C   0  0  0  0  0  0  0  0  0  0  0  0
    0.3050    5.0168   -0.2395 C   0  0  0  0  0  0  0  0  0  0  0  0
    1.1458    5.9437   -0.1079 N   0  0  0  0  0  0  0  0  0  0  0  0
    2.2557    5.5381    0.3393 C   0  0  0  0  0  0  0  0  0  0  0  0
    2.5815    4.3514    0.6401 N   0  0  0  0  0  0  0  0  0  0  0  0
    1.5911   -1.9893    1.3864 H   0  0  0  0  0  0  0  0  0  0  0  0
    3.8495   -3.7149    1.3217 H   0  0  0  0  0  0  0  0  0  0  0  0
    2.9110   -4.1020    2.8274 H   0  0  0  0  0  0  0  0  0  0  0  0
    1.4750   -5.9048    2.3682 H   0  0  0  0  0  0  0  0  0  0  0  0
   -0.1681   -7.0544    0.9773 H   0  0  0  0  0  0  0  0  0  0  0  0
   -0.3903   -5.7173   -3.4517 H   0  0  0  0  0  0  0  0  0  0  0  0
   -1.7274   -4.7115   -2.7011 H   0  0  0  0  0  0  0  0  0  0  0  0
    2.0126   -2.9537   -0.6453 H   0  0  0  0  0  0  0  0  0  0  0  0
    0.5915   -0.5997    2.0345 H   0  0  0  0  0  0  0  0  0  0  0  0
    0.7350    1.0061    2.7679 H   0  0  0  0  0  0  0  0  0  0  0  0
    1.8492    0.2570   -0.0268 H   0  0  0  0  0  0  0  0  0  0  0  0
    0.3168    1.0714    0.2412 H   0  0  0  0  0  0  0  0  0  0  0  0
    4.1572    2.8597    1.5234 H   0  0  0  0  0  0  0  0  0  0  0  0
    4.0984    1.3064    0.6544 H   0  0  0  0  0  0  0  0  0  0  0  0
    2.8769    1.8944    3.4517 H   0  0  0  0  0  0  0  0  0  0  0  0
    4.3977    1.0289    3.1374 H   0  0  0  0  0  0  0  0  0  0  0  0
   -2.8980    2.3521   -0.8738 H   0  0  0  0  0  0  0  0  0  0  0  0
   -4.4320    4.0859   -1.6945 H   0  0  0  0  0  0  0  0  0  0  0  0
   -3.7152    6.4091   -1.8437 H   0  0  0  0  0  0  0  0  0  0  0  0
   -1.4326    7.0544   -1.1753 H   0  0  0  0  0  0  0  0  0  0  0  0
    3.0324    6.3098    0.4799 H   0  0  0  0  0  0  0  0  0  0  0  0
  1  2  2  0      
  2  3  1  0      
  2 14  1  0      
  3  4  1  0      
  3 33  1  0      
  4  5  1  0      
  4 34  1  0      
  4 35  1  0      
  5  6  1  0      
  5 13  2  0      
  6  7  2  0      
  6 36  1  0      
  7  8  1  0      
  7 37  1  0      
  8  9  1  0      
  8 12  2  0      
  9 10  1  0      
 10 11  1  0      
 10 38  1  0      
 10 39  1  0      
 11 12  1  0      
 12 13  1  0      
 13 40  1  0      
 14 15  1  0      
 14 19  1  0      
 15 16  1  0      
 15 41  1  0      
 15 42  1  0      
 16 17  1  0      
 16 43  1  0      
 16 44  1  0      
 17 18  1  0      
 17 20  1  0      
 18 19  1  0      
 18 45  1  0      
 18 46  1  0      
 19 47  1  0      
 19 48  1  0      
 20 21  1  0      
 20 32  2  0      
 22 21  1  0      
 29 21  2  0      
 23 22  1  0      
 24 23  2  0      
 28 23  1  0      
 25 24  1  0      
 24 49  1  0      
 26 25  2  0      
 25 50  1  0      
 27 26  1  0      
 26 51  1  0      
 28 27  2  0      
 27 52  1  0      
 29 28  1  0      
 30 29  1  0      
 31 30  2  0      
 32 31  1  0      
 31 53  1  0      
M  END
