
  Chem3D Core 15.008141514003D

 57 57  0  0  0  0  0  0  0  0999 V2000
   -5.9318   -5.8230    2.1415 O   0  0  0  0  0  0  0  0  0  0  0  0
   -4.0882   -4.5211    3.3129 O   0  0  0  0  0  0  0  0  0  0  0  0
   -3.4555   -2.6671    2.4072 O   0  0  0  0  0  0  0  0  0  0  0  0
   -0.4760   -1.0184   -1.1203 C   0  0  0  0  0  0  0  0  0  0  0  0
   -1.9071   -0.7161   -0.6468 C   0  0  0  0  0  0  0  0  0  0  0  0
    0.3611    0.2620   -1.2727 C   0  0  0  0  0  0  0  0  0  0  0  0
   -2.7525   -1.9936   -0.5174 C   0  0  0  0  0  0  0  0  0  0  0  0
    1.7967   -0.0401   -1.7333 C   0  0  0  0  0  0  0  0  0  0  0  0
   -4.1835   -1.6895   -0.0406 C   0  0  0  0  0  0  0  0  0  0  0  0
    2.6232    1.2436   -1.9110 C   0  0  0  0  0  0  0  0  0  0  0  0
   -5.0123   -2.9622    0.1262 C   0  0  0  0  0  0  0  0  0  0  0  0
   -4.9870   -3.8257    1.1810 C   0  0  0  0  0  0  0  0  0  0  0  0
    4.0286    0.9256   -2.3612 C   0  0  0  0  0  0  0  0  0  0  0  0
   -5.8245   -3.2170   -0.9198 C   0  0  0  0  0  0  0  0  0  0  0  0
   -5.8154   -4.9037    1.1464 C   0  0  0  0  0  0  0  0  0  0  0  0
    5.1792    1.2405   -1.7434 C   0  0  0  0  0  0  0  0  0  0  0  0
   -6.6296   -4.2818   -0.9572 C   0  0  0  0  0  0  0  0  0  0  0  0
   -6.6187   -5.1100    0.0886 C   0  0  0  0  0  0  0  0  0  0  0  0
    5.3477    1.9925   -0.4485 C   0  0  0  0  0  0  0  0  0  0  0  0
   -4.1671   -3.6435    2.2718 C   0  0  0  0  0  0  0  0  0  0  0  0
    6.1977    3.2183   -0.6698 C   0  0  0  0  0  0  0  0  0  0  0  0
    4.2866    4.8219   -1.1293 C   0  0  0  0  0  0  0  0  0  0  0  0
    5.7376    4.4452   -0.9640 C   0  0  0  0  0  0  0  0  0  0  0  0
    3.6955    5.3599    0.1811 C   0  0  0  0  0  0  0  0  0  0  0  0
    2.2075    5.7032    0.0311 C   0  0  0  0  0  0  0  0  0  0  0  0
   -6.6197   -6.4780    1.9471 H   0  0  0  0  0  0  0  0  0  0  0  0
   -4.2116   -5.4411    3.0511 H   0  0  0  0  0  0  0  0  0  0  0  0
    0.0194   -1.6998   -0.3885 H   0  0  0  0  0  0  0  0  0  0  0  0
   -0.5158   -1.5519   -2.0997 H   0  0  0  0  0  0  0  0  0  0  0  0
   -2.3963   -0.0200   -1.3688 H   0  0  0  0  0  0  0  0  0  0  0  0
   -1.8675   -0.1998    0.3418 H   0  0  0  0  0  0  0  0  0  0  0  0
   -0.1295    0.9378   -2.0130 H   0  0  0  0  0  0  0  0  0  0  0  0
    0.3915    0.8023   -0.2966 H   0  0  0  0  0  0  0  0  0  0  0  0
   -2.2448   -2.6970    0.1816 H   0  0  0  0  0  0  0  0  0  0  0  0
   -2.8002   -2.5083   -1.5068 H   0  0  0  0  0  0  0  0  0  0  0  0
    2.2958   -0.6972   -0.9815 H   0  0  0  0  0  0  0  0  0  0  0  0
    1.7631   -0.5999   -2.6984 H   0  0  0  0  0  0  0  0  0  0  0  0
   -4.6435   -1.0179   -0.8037 H   0  0  0  0  0  0  0  0  0  0  0  0
   -4.2269   -1.0364    0.8563 H   0  0  0  0  0  0  0  0  0  0  0  0
    2.1526    1.8923   -2.6872 H   0  0  0  0  0  0  0  0  0  0  0  0
    2.6011    1.8175   -0.9599 H   0  0  0  0  0  0  0  0  0  0  0  0
    4.0984    0.3682   -3.3129 H   0  0  0  0  0  0  0  0  0  0  0  0
   -5.8514   -2.5453   -1.7946 H   0  0  0  0  0  0  0  0  0  0  0  0
    6.1209    0.9177   -2.2237 H   0  0  0  0  0  0  0  0  0  0  0  0
   -7.2893   -4.4678   -1.8208 H   0  0  0  0  0  0  0  0  0  0  0  0
   -7.2909   -5.9851    0.0745 H   0  0  0  0  0  0  0  0  0  0  0  0
    4.3829    2.2773    0.0183 H   0  0  0  0  0  0  0  0  0  0  0  0
    5.8496    1.3286    0.2936 H   0  0  0  0  0  0  0  0  0  0  0  0
    7.2909    3.0711   -0.6130 H   0  0  0  0  0  0  0  0  0  0  0  0
    4.2011    5.5845   -1.9386 H   0  0  0  0  0  0  0  0  0  0  0  0
    3.6969    3.9437   -1.4747 H   0  0  0  0  0  0  0  0  0  0  0  0
    6.4687    5.2631   -1.0901 H   0  0  0  0  0  0  0  0  0  0  0  0
    3.8141    4.5976    0.9881 H   0  0  0  0  0  0  0  0  0  0  0  0
    4.2572    6.2711    0.4982 H   0  0  0  0  0  0  0  0  0  0  0  0
    1.7900    6.0980    0.9858 H   0  0  0  0  0  0  0  0  0  0  0  0
    2.0515    6.4780   -0.7540 H   0  0  0  0  0  0  0  0  0  0  0  0
    1.6149    4.8028   -0.2513 H   0  0  0  0  0  0  0  0  0  0  0  0
  1 15  1  0      
  1 26  1  0      
  2 20  1  0      
  2 27  1  0      
  3 20  2  0      
  4  5  1  0      
  4  6  1  0      
  4 28  1  0      
  4 29  1  0      
  5  7  1  0      
  5 30  1  0      
  5 31  1  0      
  6  8  1  0      
  6 32  1  0      
  6 33  1  0      
  7  9  1  0      
  7 34  1  0      
  7 35  1  0      
  8 10  1  0      
  8 36  1  0      
  8 37  1  0      
  9 11  1  0      
  9 38  1  0      
  9 39  1  0      
 10 13  1  0      
 10 40  1  0      
 10 41  1  0      
 11 12  1  0      
 11 14  2  0      
 12 15  2  0      
 12 20  1  0      
 13 16  2  0      
 13 42  1  0      
 17 14  1  0      
 14 43  1  0      
 15 18  1  0      
 16 19  1  0      
 16 44  1  0      
 18 17  2  0      
 17 45  1  0      
 18 46  1  0      
 19 21  1  0      
 19 47  1  0      
 19 48  1  0      
 21 23  2  0      
 21 49  1  0      
 22 23  1  0      
 22 24  1  0      
 22 50  1  0      
 22 51  1  0      
 23 52  1  0      
 24 25  1  0      
 24 53  1  0      
 24 54  1  0      
 25 55  1  0      
 25 56  1  0      
 25 57  1  0      
M  END
