
  Chem3D Core 15.001121613313D

 49 50  0  0  0  0  0  0  0  0999 V2000
    2.7277   -2.1186   -2.3225 O   0  0  0  0  0  0  0  0  0  0  0  0
    2.0299   -1.1680   -2.5685 C   0  0  0  0  0  0  0  0  0  0  0  0
    0.6777   -1.1298   -2.4591 N   0  0  0  0  0  0  0  0  0  0  0  0
   -0.2760   -1.9944   -2.0690 C   0  0  0  0  0  0  0  0  0  0  0  0
   -0.0972   -3.2626   -1.6859 C   0  0  0  0  0  0  0  0  0  0  0  0
   -1.1626   -3.9879   -1.3182 C   0  0  0  0  0  0  0  0  0  0  0  0
   -2.4214   -3.4961   -1.3104 C   0  0  0  0  0  0  0  0  0  0  0  0
   -3.3493   -4.2662   -0.9523 N   0  3  0  0  0  0  0  0  0  0  0  0
   -4.6141   -3.9377   -0.9156 O   0  5  0  0  0  0  0  0  0  0  0  0
   -3.1450   -5.5106   -0.5925 O   0  0  0  0  0  0  0  0  0  0  0  0
   -2.6178   -2.2103   -1.6982 C   0  0  0  0  0  0  0  0  0  0  0  0
   -3.9610   -1.4702   -1.7076 C   0  0  0  0  0  0  0  0  0  0  0  0
   -4.6356   -1.5302   -0.5692 F   0  0  0  0  0  0  0  0  0  0  0  0
   -3.7947   -0.1700   -1.9125 F   0  0  0  0  0  0  0  0  0  0  0  0
   -4.7370   -1.8668   -2.7080 F   0  0  0  0  0  0  0  0  0  0  0  0
   -1.5270   -1.5053   -2.0622 C   0  0  0  0  0  0  0  0  0  0  0  0
    2.6074    0.1701   -3.0391 C   0  0  0  0  0  0  0  0  0  0  0  0
    4.0451    0.0321   -3.5408 C   0  0  0  0  0  0  0  0  0  0  0  0
    1.8179    0.6398   -4.1134 O   0  0  0  0  0  0  0  0  0  0  0  0
    2.5197    1.1907   -1.9029 C   0  0  0  0  0  0  0  0  0  0  0  0
    1.1783    1.3430   -1.5144 O   0  0  0  0  0  0  0  0  0  0  0  0
    0.8687    2.1281   -0.4334 C   0  0  0  0  0  0  0  0  0  0  0  0
   -0.3835    2.0836    0.0592 C   0  0  0  0  0  0  0  0  0  0  0  0
   -0.7756    2.8049    1.1210 C   0  0  0  0  0  0  0  0  0  0  0  0
    0.0825    3.6148    1.7614 C   0  0  0  0  0  0  0  0  0  0  0  0
   -0.1497    4.4020    2.8326 N   0  0  0  0  0  0  0  0  0  0  0  0
   -1.1870    4.7150    3.6581 C   0  0  0  0  0  0  0  0  0  0  0  0
   -2.5230    4.0405    3.4160 C   0  0  0  0  0  0  0  0  0  0  0  0
   -1.0106    5.5106    4.5449 O   0  0  0  0  0  0  0  0  0  0  0  0
    1.3416    3.6551    1.2874 C   0  0  0  0  0  0  0  0  0  0  0  0
    1.7268    2.9292    0.2262 C   0  0  0  0  0  0  0  0  0  0  0  0
    0.2658   -0.2370   -2.7009 H   0  0  0  0  0  0  0  0  0  0  0  0
    0.8993   -3.7280   -1.6649 H   0  0  0  0  0  0  0  0  0  0  0  0
   -0.9413   -5.0270   -1.0171 H   0  0  0  0  0  0  0  0  0  0  0  0
   -1.6399   -0.4545   -2.3771 H   0  0  0  0  0  0  0  0  0  0  0  0
    4.4236    1.0011   -3.9388 H   0  0  0  0  0  0  0  0  0  0  0  0
    4.7370   -0.2828   -2.7271 H   0  0  0  0  0  0  0  0  0  0  0  0
    4.1147   -0.7144   -4.3648 H   0  0  0  0  0  0  0  0  0  0  0  0
    2.2463    1.3811   -4.5449 H   0  0  0  0  0  0  0  0  0  0  0  0
    3.1156    0.8245   -1.0350 H   0  0  0  0  0  0  0  0  0  0  0  0
    2.9119    2.1729   -2.2546 H   0  0  0  0  0  0  0  0  0  0  0  0
   -1.1194    1.4252   -0.4356 H   0  0  0  0  0  0  0  0  0  0  0  0
   -1.8222    2.6937    1.4299 H   0  0  0  0  0  0  0  0  0  0  0  0
    0.6981    4.8942    3.0791 H   0  0  0  0  0  0  0  0  0  0  0  0
   -2.9393    4.3203    2.4226 H   0  0  0  0  0  0  0  0  0  0  0  0
   -2.4442    2.9373    3.5397 H   0  0  0  0  0  0  0  0  0  0  0  0
   -3.2648    4.3854    4.1718 H   0  0  0  0  0  0  0  0  0  0  0  0
    2.0938    4.2987    1.7774 H   0  0  0  0  0  0  0  0  0  0  0  0
    2.7775    3.0175   -0.0928 H   0  0  0  0  0  0  0  0  0  0  0  0
  1  2  2  0      
  2  3  1  0      
  2 17  1  0      
  3  4  1  0      
  3 32  1  0      
  4  5  1  0      
  4 16  2  0      
  5  6  2  0      
  5 33  1  0      
  6  7  1  0      
  6 34  1  0      
  7  8  1  0      
  7 11  2  0      
  8  9  1  0      
  8 10  2  0      
 11 12  1  0      
 11 16  1  0      
 12 13  1  0      
 12 14  1  0      
 12 15  1  0      
 16 35  1  0      
 17 18  1  0      
 17 19  1  0      
 17 20  1  0      
 18 36  1  0      
 18 37  1  0      
 18 38  1  0      
 19 39  1  0      
 20 21  1  0      
 20 40  1  0      
 20 41  1  0      
 21 22  1  0      
 22 23  1  0      
 22 31  2  0      
 23 24  2  0      
 23 42  1  0      
 24 25  1  0      
 24 43  1  0      
 25 26  1  0      
 25 30  2  0      
 26 27  1  0      
 26 44  1  0      
 27 28  1  0      
 27 29  2  0      
 28 45  1  0      
 28 46  1  0      
 28 47  1  0      
 30 31  1  0      
 30 48  1  0      
 31 49  1  0      
M  CHG  2   8   1   9  -1
M  END
