
  Chem3D Core 15.010191517353D

155161  0  0  0  0  0  0  0  0999 V2000
   -4.3019   -8.1327    1.7625 C   0  0  0  0  0  0  0  0  0  0  0  0
   -3.3699   -7.0279    1.6128 N   0  0  0  0  0  0  0  0  0  0  0  0
   -2.9944   -6.5316    2.9317 C   0  0  0  0  0  0  0  0  0  0  0  0
   -4.0280   -7.1252    3.8987 C   0  0  0  0  0  0  0  0  0  0  0  0
   -5.1200   -7.7108    2.9961 C   0  0  0  0  0  0  0  0  0  0  0  0
    2.1065   -7.9661    3.7316 C   0  0  0  0  0  0  0  0  0  0  0  0
    1.1748   -8.9092    2.9672 C   0  0  0  0  0  0  0  0  0  0  0  0
    0.2251   -8.2291    1.9936 C   0  0  0  0  0  0  0  0  0  0  0  0
   -1.1557   -8.0139    2.4075 N   0  0  0  0  0  0  0  0  0  0  0  0
   -1.5919   -7.0447    3.2713 C   0  0  0  0  0  0  0  0  0  0  0  0
    3.0575   -7.1490    2.8332 C   0  0  0  0  0  0  0  0  0  0  0  0
    3.7522   -6.0650    3.6510 C   0  0  0  0  0  0  0  0  0  0  0  0
    3.3775   -4.7745    3.3601 N   0  0  0  0  0  0  0  0  0  0  0  0
    4.5775   -6.3573    4.4807 O   0  0  0  0  0  0  0  0  0  0  0  0
    5.2392   -3.1943    3.1990 C   0  0  0  0  0  0  0  0  0  0  0  0
    4.0118   -3.6197    4.0202 C   0  0  0  0  0  0  0  0  0  0  0  0
    3.0663   -2.4980    4.4912 C   0  0  0  0  0  0  0  0  0  0  0  0
    6.0848   -2.3721    3.9690 O   0  0  0  0  0  0  0  0  0  0  0  0
    1.2156   -1.9886    6.0702 C   0  0  0  0  0  0  0  0  0  0  0  0
    1.9206   -2.8722    5.1527 N   0  0  0  0  0  0  0  0  0  0  0  0
    1.1521   -4.0939    4.9389 C   0  0  0  0  0  0  0  0  0  0  0  0
   -0.0049   -4.0357    5.9610 C   0  0  0  0  0  0  0  0  0  0  0  0
    0.4323   -2.9589    6.9496 C   0  0  0  0  0  0  0  0  0  0  0  0
    0.5858   -4.0854    3.5193 C   0  0  0  0  0  0  0  0  0  0  0  0
    0.0647   -2.8796    3.1462 N   0  0  0  0  0  0  0  0  0  0  0  0
   -0.4343   -2.5939    1.8012 C   0  0  0  0  0  0  0  0  0  0  0  0
    0.6655   -2.4705    0.7396 C   0  0  0  0  0  0  0  0  0  0  0  0
    1.5499   -1.2429    0.8947 C   0  0  0  0  0  0  0  0  0  0  0  0
    0.8274    0.0640    0.6675 C   0  0  0  0  0  0  0  0  0  0  0  0
    0.2835    0.3540   -0.5264 C   0  0  0  0  0  0  0  0  0  0  0  0
   -0.3509    1.5173   -0.7334 C   0  0  0  0  0  0  0  0  0  0  0  0
   -0.4680    2.4308    0.2449 C   0  0  0  0  0  0  0  0  0  0  0  0
    0.0735    2.1358    1.4388 C   0  0  0  0  0  0  0  0  0  0  0  0
    0.7110    0.9742    1.6496 C   0  0  0  0  0  0  0  0  0  0  0  0
   -1.1113    3.6115    0.0407 O   0  0  0  0  0  0  0  0  0  0  0  0
    0.6206   -5.0306    2.7745 O   0  0  0  0  0  0  0  0  0  0  0  0
    2.5990   -1.3524   -0.0490 O   0  0  0  0  0  0  0  0  0  0  0  0
    1.5114   -3.5948    0.7674 O   0  0  0  0  0  0  0  0  0  0  0  0
   -2.6032   -6.8414    0.4903 C   0  0  0  0  0  0  0  0  0  0  0  0
   -2.3695   -5.3926    0.0464 C   0  0  0  0  0  0  0  0  0  0  0  0
   -1.9640   -5.3779   -1.4343 C   0  0  0  0  0  0  0  0  0  0  0  0
   -2.1843   -7.7782   -0.1448 O   0  0  0  0  0  0  0  0  0  0  0  0
    0.1405   -9.0136    0.8105 O   0  0  0  0  0  0  0  0  0  0  0  0
    0.4140   -9.6702    3.8755 O   0  0  0  0  0  0  0  0  0  0  0  0
    1.3022   -3.5296    7.8990 O   0  0  0  0  0  0  0  0  0  0  0  0
   -1.6460   -3.4402    1.4069 C   0  0  0  0  0  0  0  0  0  0  0  0
   -1.3577   -4.6394    0.8145 N   0  0  0  0  0  0  0  0  0  0  0  0
   -2.7738   -3.0447    1.5708 O   0  0  0  0  0  0  0  0  0  0  0  0
   -0.9477   -6.5951    4.1847 O   0  0  0  0  0  0  0  0  0  0  0  0
   -3.3765   -4.9156    0.1062 H   0  0  0  0  0  0  0  0  0  0  0  0
    3.3430   -1.3278    4.3814 O   0  0  0  0  0  0  0  0  0  0  0  0
   -4.5207   -6.1433    4.7746 O   0  0  0  0  0  0  0  0  0  0  0  0
   -6.2052   -6.6924    2.6092 C   0  0  0  0  0  0  0  0  0  0  0  0
    4.9067   -2.5060    1.8816 C   0  0  0  0  0  0  0  0  0  0  0  0
   -1.9439   -3.9881   -2.0624 C   0  0  0  0  0  0  0  0  0  0  0  0
   -0.6842   -5.9587   -1.5090 O   0  0  0  0  0  0  0  0  0  0  0  0
    4.0812   -8.0128    2.2176 N   0  0  0  0  0  0  0  0  0  0  0  0
    4.8698   -7.6532    1.1558 C   0  0  0  0  0  0  0  0  0  0  0  0
    4.4943   -6.6457    0.3213 C   0  0  0  0  0  0  0  0  0  0  0  0
    5.9861   -8.1154    1.1460 O   0  0  0  0  0  0  0  0  0  0  0  0
    3.2411   -6.5418   -0.1443 C   0  0  0  0  0  0  0  0  0  0  0  0
    2.8795   -5.5175   -0.9310 C   0  0  0  0  0  0  0  0  0  0  0  0
    3.7197   -4.5239   -1.2924 C   0  0  0  0  0  0  0  0  0  0  0  0
    4.9926   -4.7050   -0.8764 C   0  0  0  0  0  0  0  0  0  0  0  0
    5.3817   -5.7342   -0.1055 C   0  0  0  0  0  0  0  0  0  0  0  0
    3.3070   -3.4279   -1.9845 C   0  0  0  0  0  0  0  0  0  0  0  0
    4.1108   -2.3876   -2.2826 C   0  0  0  0  0  0  0  0  0  0  0  0
    3.6845   -1.2676   -2.8904 C   0  0  0  0  0  0  0  0  0  0  0  0
    2.4084   -1.0642   -3.2749 C   0  0  0  0  0  0  0  0  0  0  0  0
    1.6143   -2.1220   -3.0136 C   0  0  0  0  0  0  0  0  0  0  0  0
    2.0385   -3.2386   -2.3991 C   0  0  0  0  0  0  0  0  0  0  0  0
    1.9671    0.0876   -3.8494 C   0  0  0  0  0  0  0  0  0  0  0  0
    0.6864    0.2844   -4.2309 C   0  0  0  0  0  0  0  0  0  0  0  0
    0.2520    1.4272   -4.7852 C   0  0  0  0  0  0  0  0  0  0  0  0
    1.0545    2.4812   -5.0100 C   0  0  0  0  0  0  0  0  0  0  0  0
    2.3340    2.2978   -4.6386 C   0  0  0  0  0  0  0  0  0  0  0  0
    2.7642    1.1527   -4.0831 C   0  0  0  0  0  0  0  0  0  0  0  0
    0.5342    3.6146   -5.5869 O   0  0  0  0  0  0  0  0  0  0  0  0
    1.3950    4.6872   -5.8697 C   0  0  0  0  0  0  0  0  0  0  0  0
    0.5910    5.8049   -6.5361 C   0  0  0  0  0  0  0  0  0  0  0  0
    1.4767    7.0123   -6.8852 C   0  0  0  0  0  0  0  0  0  0  0  0
    0.6782    8.1382   -7.5612 C   0  0  0  0  0  0  0  0  0  0  0  0
    1.5682    9.3386   -7.9104 C   0  0  0  0  0  0  0  0  0  0  0  0
   -3.7522   -9.0841    1.9512 H   0  0  0  0  0  0  0  0  0  0  0  0
   -4.9403   -8.2557    0.8591 H   0  0  0  0  0  0  0  0  0  0  0  0
   -3.0075   -5.4193    2.9417 H   0  0  0  0  0  0  0  0  0  0  0  0
   -3.5787   -7.9317    4.5231 H   0  0  0  0  0  0  0  0  0  0  0  0
   -5.6114   -8.5936    3.4725 H   0  0  0  0  0  0  0  0  0  0  0  0
    1.5019   -7.2747    4.3576 H   0  0  0  0  0  0  0  0  0  0  0  0
    2.7205   -8.5633    4.4477 H   0  0  0  0  0  0  0  0  0  0  0  0
    1.8233   -9.6352    2.4210 H   0  0  0  0  0  0  0  0  0  0  0  0
    0.6034   -7.2538    1.6271 H   0  0  0  0  0  0  0  0  0  0  0  0
   -1.8386   -8.4891    1.8163 H   0  0  0  0  0  0  0  0  0  0  0  0
    2.4672   -6.6046    2.0772 H   0  0  0  0  0  0  0  0  0  0  0  0
    2.6878   -4.6168    2.6162 H   0  0  0  0  0  0  0  0  0  0  0  0
    5.8458   -4.1053    2.9710 H   0  0  0  0  0  0  0  0  0  0  0  0
    4.4048   -3.9562    5.0133 H   0  0  0  0  0  0  0  0  0  0  0  0
    6.9141   -2.2361    3.5057 H   0  0  0  0  0  0  0  0  0  0  0  0
    0.5359   -1.3085    5.5075 H   0  0  0  0  0  0  0  0  0  0  0  0
    1.9161   -1.3777    6.6843 H   0  0  0  0  0  0  0  0  0  0  0  0
    1.7689   -4.9935    5.1529 H   0  0  0  0  0  0  0  0  0  0  0  0
   -0.9564   -3.7112    5.4773 H   0  0  0  0  0  0  0  0  0  0  0  0
   -0.1974   -5.0153    6.4545 H   0  0  0  0  0  0  0  0  0  0  0  0
   -0.4079   -2.4856    7.5030 H   0  0  0  0  0  0  0  0  0  0  0  0
    0.0996   -2.1092    3.8123 H   0  0  0  0  0  0  0  0  0  0  0  0
   -0.8661   -1.5642    1.8855 H   0  0  0  0  0  0  0  0  0  0  0  0
    0.2067   -2.4535   -0.2725 H   0  0  0  0  0  0  0  0  0  0  0  0
    2.0261   -1.2694    1.9011 H   0  0  0  0  0  0  0  0  0  0  0  0
    0.3496   -0.3664   -1.3545 H   0  0  0  0  0  0  0  0  0  0  0  0
   -0.7871    1.7291   -1.7242 H   0  0  0  0  0  0  0  0  0  0  0  0
   -0.0082    2.8657    2.2617 H   0  0  0  0  0  0  0  0  0  0  0  0
    1.1417    0.7712    2.6443 H   0  0  0  0  0  0  0  0  0  0  0  0
   -1.0884    4.1328    0.8595 H   0  0  0  0  0  0  0  0  0  0  0  0
    2.2956   -1.1216   -0.9339 H   0  0  0  0  0  0  0  0  0  0  0  0
    2.1768   -3.4936    0.0768 H   0  0  0  0  0  0  0  0  0  0  0  0
   -2.6502   -6.0171   -2.0398 H   0  0  0  0  0  0  0  0  0  0  0  0
   -0.5951   -8.7184    0.2612 H   0  0  0  0  0  0  0  0  0  0  0  0
    0.9957  -10.1462    4.4717 H   0  0  0  0  0  0  0  0  0  0  0  0
    1.4712   -2.9082    8.6108 H   0  0  0  0  0  0  0  0  0  0  0  0
   -0.3797   -4.9458    0.7971 H   0  0  0  0  0  0  0  0  0  0  0  0
   -5.0294   -6.5502    5.4790 H   0  0  0  0  0  0  0  0  0  0  0  0
   -6.9141   -7.1289    1.8691 H   0  0  0  0  0  0  0  0  0  0  0  0
   -6.8087   -6.3878    3.4942 H   0  0  0  0  0  0  0  0  0  0  0  0
   -5.7663   -5.7739    2.1576 H   0  0  0  0  0  0  0  0  0  0  0  0
    5.8205   -2.3600    1.2616 H   0  0  0  0  0  0  0  0  0  0  0  0
    4.1925   -3.1211    1.2911 H   0  0  0  0  0  0  0  0  0  0  0  0
    4.4547   -1.5027    2.0360 H   0  0  0  0  0  0  0  0  0  0  0  0
   -1.6401   -4.0363   -3.1332 H   0  0  0  0  0  0  0  0  0  0  0  0
   -2.9511   -3.5148   -2.0160 H   0  0  0  0  0  0  0  0  0  0  0  0
   -1.2313   -3.3102   -1.5489 H   0  0  0  0  0  0  0  0  0  0  0  0
   -0.7737   -6.9092   -1.3840 H   0  0  0  0  0  0  0  0  0  0  0  0
    4.4724   -8.7609    2.7873 H   0  0  0  0  0  0  0  0  0  0  0  0
    2.4879   -7.3143    0.0871 H   0  0  0  0  0  0  0  0  0  0  0  0
    1.8239   -5.5494   -1.2294 H   0  0  0  0  0  0  0  0  0  0  0  0
    5.8029   -3.9996   -1.1107 H   0  0  0  0  0  0  0  0  0  0  0  0
    6.4362   -5.7791    0.2182 H   0  0  0  0  0  0  0  0  0  0  0  0
    5.1763   -2.3716   -2.0091 H   0  0  0  0  0  0  0  0  0  0  0  0
    4.4693   -0.5097   -3.0309 H   0  0  0  0  0  0  0  0  0  0  0  0
    0.5439   -2.1300   -3.2677 H   0  0  0  0  0  0  0  0  0  0  0  0
    1.2487   -3.9877   -2.2434 H   0  0  0  0  0  0  0  0  0  0  0  0
   -0.0984   -0.4769   -4.1127 H   0  0  0  0  0  0  0  0  0  0  0  0
   -0.8116    1.5128   -5.0702 H   0  0  0  0  0  0  0  0  0  0  0  0
    3.0770    3.0994   -4.7805 H   0  0  0  0  0  0  0  0  0  0  0  0
    3.8343    1.1616   -3.8293 H   0  0  0  0  0  0  0  0  0  0  0  0
    1.8374    5.0664   -4.9191 H   0  0  0  0  0  0  0  0  0  0  0  0
    2.1950    4.3437   -6.5665 H   0  0  0  0  0  0  0  0  0  0  0  0
    0.1139    5.4139   -7.4665 H   0  0  0  0  0  0  0  0  0  0  0  0
   -0.2291    6.1305   -5.8523 H   0  0  0  0  0  0  0  0  0  0  0  0
    1.9516    7.4044   -5.9545 H   0  0  0  0  0  0  0  0  0  0  0  0
    2.2979    6.6840   -7.5658 H   0  0  0  0  0  0  0  0  0  0  0  0
    0.2021    7.7509   -8.4936 H   0  0  0  0  0  0  0  0  0  0  0  0
   -0.1421    8.4741   -6.8827 H   0  0  0  0  0  0  0  0  0  0  0  0
    0.9763   10.1462   -8.3996 H   0  0  0  0  0  0  0  0  0  0  0  0
    2.0388    9.7693   -6.9972 H   0  0  0  0  0  0  0  0  0  0  0  0
    2.3831    9.0445   -8.6108 H   0  0  0  0  0  0  0  0  0  0  0  0
  1  2  1  0      
  5  1  1  0      
  1 84  1  0      
  1 85  1  0      
  3  2  1  0      
  2 39  1  0      
  3  4  1  0      
 10  3  1  0      
  3 86  1  0      
  4  5  1  0      
  4 52  1  0      
  4 87  1  0      
  5 53  1  0      
  5 88  1  0      
  6  7  1  0      
 11  6  1  0      
  6 89  1  0      
  6 90  1  0      
  7  8  1  0      
  7 44  1  0      
  7 91  1  0      
  8  9  1  0      
  8 43  1  0      
  8 92  1  0      
  9 10  1  0      
  9 93  1  0      
 10 49  2  0      
 11 12  1  0      
 11 57  1  0      
 11 94  1  0      
 13 12  1  0      
 12 14  2  0      
 16 13  1  0      
 13 95  1  0      
 15 16  1  0      
 15 18  1  0      
 15 54  1  0      
 15 96  1  0      
 17 16  1  0      
 16 97  1  0      
 20 17  1  0      
 17 51  2  0      
 18 98  1  0      
 19 20  1  0      
 23 19  1  0      
 19 99  1  0      
 19100  1  0      
 21 20  1  0      
 21 22  1  0      
 24 21  1  0      
 21101  1  0      
 22 23  1  0      
 22102  1  0      
 22103  1  0      
 23 45  1  0      
 23104  1  0      
 25 24  1  0      
 24 36  2  0      
 26 25  1  0      
 25105  1  0      
 26 27  1  0      
 46 26  1  0      
 26106  1  0      
 27 28  1  0      
 27 38  1  0      
 27107  1  0      
 28 29  1  0      
 28 37  1  0      
 28108  1  0      
 29 30  1  0      
 29 34  2  0      
 30 31  2  0      
 30109  1  0      
 31 32  1  0      
 31110  1  0      
 32 33  2  0      
 32 35  1  0      
 33 34  1  0      
 33111  1  0      
 34112  1  0      
 35113  1  0      
 37114  1  0      
 38115  1  0      
 39 40  1  0      
 39 42  2  0      
 40 41  1  0      
 40 47  1  0      
 40 50  1  0      
 41 55  1  0      
 41 56  1  0      
 41116  1  0      
 43117  1  0      
 44118  1  0      
 45119  1  0      
 47 46  1  0      
 46 48  2  0      
 47120  1  0      
 52121  1  0      
 53122  1  0      
 53123  1  0      
 53124  1  0      
 54125  1  0      
 54126  1  0      
 54127  1  0      
 55128  1  0      
 55129  1  0      
 55130  1  0      
 56131  1  0      
 57 58  1  0      
 57132  1  0      
 58 59  1  0      
 58 60  2  0      
 59 61  1  0      
 59 65  2  0      
 61 62  2  0      
 61133  1  0      
 62 63  1  0      
 62134  1  0      
 63 64  2  0      
 63 66  1  0      
 64 65  1  0      
 64135  1  0      
 65136  1  0      
 66 67  1  0      
 66 71  2  0      
 67 68  2  0      
 67137  1  0      
 68 69  1  0      
 68138  1  0      
 69 70  2  0      
 69 72  1  0      
 70 71  1  0      
 70139  1  0      
 71140  1  0      
 72 73  1  0      
 72 77  2  0      
 73 74  2  0      
 73141  1  0      
 74 75  1  0      
 74142  1  0      
 75 76  2  0      
 75 78  1  0      
 76 77  1  0      
 76143  1  0      
 77144  1  0      
 78 79  1  0      
 79 80  1  0      
 79145  1  0      
 79146  1  0      
 80 81  1  0      
 80147  1  0      
 80148  1  0      
 81 82  1  0      
 81149  1  0      
 81150  1  0      
 82 83  1  0      
 82151  1  0      
 82152  1  0      
 83153  1  0      
 83154  1  0      
 83155  1  0      
M  END
