
  Chem3D Core 15.010301515143D

 68 72  0  0  0  0  0  0  0  0999 V2000
    3.3610   -0.4904    8.7338 F   0  0  0  0  0  0  0  0  0  0  0  0
    2.9201   -2.5540    8.4446 F   0  0  0  0  0  0  0  0  0  0  0  0
    2.7476   -1.6933   10.3877 F   0  0  0  0  0  0  0  0  0  0  0  0
    1.9211   -3.0348  -10.0056 F   0  0  0  0  0  0  0  0  0  0  0  0
    3.9458   -2.7661   -9.3954 F   0  0  0  0  0  0  0  0  0  0  0  0
    2.9832   -1.2675  -10.5674 F   0  0  0  0  0  0  0  0  0  0  0  0
   -1.4465   -0.2747   -0.1680 O   0  0  0  0  0  0  0  0  0  0  0  0
    0.2527    0.5081   -1.3441 O   0  0  0  0  0  0  0  0  0  0  0  0
   -1.4374    0.5181    3.4449 N   0  0  0  0  0  0  0  0  0  0  0  0
   -0.7571    0.5242    6.2213 N   0  0  0  0  0  0  0  0  0  0  0  0
    0.2010    0.2023   -4.0097 N   0  0  0  0  0  0  0  0  0  0  0  0
    2.8251    1.5531   -6.6601 N   0  0  0  0  0  0  0  0  0  0  0  0
   -2.4172    0.1814    4.4741 C   0  0  0  0  0  0  0  0  0  0  0  0
   -0.0807    0.2253    3.8933 C   0  0  0  0  0  0  0  0  0  0  0  0
   -2.1372    0.9016    5.8038 C   0  0  0  0  0  0  0  0  0  0  0  0
    0.2611    0.9371    5.2142 C   0  0  0  0  0  0  0  0  0  0  0  0
   -1.7699   -0.1602    2.1934 C   0  0  0  0  0  0  0  0  0  0  0  0
   -0.4846   -0.1149    7.3011 C   0  0  0  0  0  0  0  0  0  0  0  0
   -0.8694    0.2201    1.0131 C   0  0  0  0  0  0  0  0  0  0  0  0
    0.7705   -0.4750    7.6575 C   0  0  0  0  0  0  0  0  0  0  0  0
   -1.4268   -0.4996    8.1913 C   0  0  0  0  0  0  0  0  0  0  0  0
    1.0977   -1.1597    8.7706 C   0  0  0  0  0  0  0  0  0  0  0  0
   -1.1458   -1.1591    9.3256 C   0  0  0  0  0  0  0  0  0  0  0  0
    0.1167   -1.4813    9.6268 C   0  0  0  0  0  0  0  0  0  0  0  0
    2.5434   -1.4660    9.0996 C   0  0  0  0  0  0  0  0  0  0  0  0
   -0.7953   -0.1080   -1.3740 C   0  0  0  0  0  0  0  0  0  0  0  0
   -1.3203   -0.6671   -2.5177 C   0  0  0  0  0  0  0  0  0  0  0  0
   -0.7993   -0.5515   -3.7699 C   0  0  0  0  0  0  0  0  0  0  0  0
    1.0576    0.4815   -4.9154 C   0  0  0  0  0  0  0  0  0  0  0  0
    1.4656   -0.1894   -6.0196 C   0  0  0  0  0  0  0  0  0  0  0  0
   -2.4334   -1.4172   -2.3566 C   0  0  0  0  0  0  0  0  0  0  0  0
    2.3400    0.4008   -6.8681 C   0  0  0  0  0  0  0  0  0  0  0  0
   -1.4471   -1.1606   -4.7838 C   0  0  0  0  0  0  0  0  0  0  0  0
    1.1505   -1.4673   -6.3065 C   0  0  0  0  0  0  0  0  0  0  0  0
    1.6840    1.6531   -4.6804 C   0  0  0  0  0  0  0  0  0  0  0  0
   -3.0357   -2.0499   -3.3726 C   0  0  0  0  0  0  0  0  0  0  0  0
    2.7466   -0.2174   -7.9938 C   0  0  0  0  0  0  0  0  0  0  0  0
    2.3705   -1.4700   -8.2974 C   0  0  0  0  0  0  0  0  0  0  0  0
   -2.5372   -1.9180   -4.6050 C   0  0  0  0  0  0  0  0  0  0  0  0
    1.5588   -2.0858   -7.4247 C   0  0  0  0  0  0  0  0  0  0  0  0
    2.5370    2.1476   -5.5859 C   0  0  0  0  0  0  0  0  0  0  0  0
    2.7968   -2.1353   -9.5850 C   0  0  0  0  0  0  0  0  0  0  0  0
    0.3444    0.8477   -3.1988 H   0  0  0  0  0  0  0  0  0  0  0  0
   -3.4417    0.4692    4.1338 H   0  0  0  0  0  0  0  0  0  0  0  0
   -2.4288   -0.9197    4.6605 H   0  0  0  0  0  0  0  0  0  0  0  0
    0.6628    0.5695    3.1363 H   0  0  0  0  0  0  0  0  0  0  0  0
    0.0592   -0.8743    4.0263 H   0  0  0  0  0  0  0  0  0  0  0  0
   -2.1710    2.0052    5.6422 H   0  0  0  0  0  0  0  0  0  0  0  0
   -2.9626    0.6988    6.5123 H   0  0  0  0  0  0  0  0  0  0  0  0
    1.3266    0.7656    5.4585 H   0  0  0  0  0  0  0  0  0  0  0  0
    0.1846    2.0410    5.0686 H   0  0  0  0  0  0  0  0  0  0  0  0
   -2.8159    0.1091    1.9052 H   0  0  0  0  0  0  0  0  0  0  0  0
   -1.7472   -1.2685    2.3252 H   0  0  0  0  0  0  0  0  0  0  0  0
    0.1409   -0.2353    1.1305 H   0  0  0  0  0  0  0  0  0  0  0  0
   -0.7929    1.3305    0.9429 H   0  0  0  0  0  0  0  0  0  0  0  0
    1.6415   -0.2377    7.0355 H   0  0  0  0  0  0  0  0  0  0  0  0
   -2.4995   -0.3010    8.0669 H   0  0  0  0  0  0  0  0  0  0  0  0
   -1.9555   -1.4377   10.0225 H   0  0  0  0  0  0  0  0  0  0  0  0
    0.3293   -2.0141   10.5674 H   0  0  0  0  0  0  0  0  0  0  0  0
   -2.9131   -1.5661   -1.3746 H   0  0  0  0  0  0  0  0  0  0  0  0
   -1.1700   -0.9896   -5.8350 H   0  0  0  0  0  0  0  0  0  0  0  0
    0.5867   -2.0959   -5.6027 H   0  0  0  0  0  0  0  0  0  0  0  0
    1.4790    2.2727   -3.7894 H   0  0  0  0  0  0  0  0  0  0  0  0
   -3.9458   -2.6501   -3.2048 H   0  0  0  0  0  0  0  0  0  0  0  0
    3.4339    0.3031   -8.6832 H   0  0  0  0  0  0  0  0  0  0  0  0
   -3.0503   -2.3834   -5.4633 H   0  0  0  0  0  0  0  0  0  0  0  0
    1.2530   -3.1303   -7.6032 H   0  0  0  0  0  0  0  0  0  0  0  0
    3.0130    3.1303   -5.4272 H   0  0  0  0  0  0  0  0  0  0  0  0
  1 25  1  0      
  2 25  1  0      
  3 25  1  0      
  4 42  1  0      
  5 42  1  0      
  6 42  1  0      
  7 19  1  0      
  7 26  1  0      
  8 26  2  0      
  9 13  1  0      
  9 14  1  0      
  9 17  1  0      
 15 10  1  0      
 10 16  1  0      
 10 18  1  0      
 11 28  1  0      
 11 29  1  0      
 11 43  1  0      
 32 12  1  0      
 41 12  2  0      
 13 15  1  0      
 13 44  1  0      
 13 45  1  0      
 16 14  1  0      
 14 46  1  0      
 14 47  1  0      
 15 48  1  0      
 15 49  1  0      
 16 50  1  0      
 16 51  1  0      
 17 19  1  0      
 17 52  1  0      
 17 53  1  0      
 18 20  1  0      
 18 21  2  0      
 19 54  1  0      
 19 55  1  0      
 20 22  2  0      
 20 56  1  0      
 23 21  1  0      
 21 57  1  0      
 22 24  1  0      
 22 25  1  0      
 24 23  2  0      
 23 58  1  0      
 24 59  1  0      
 26 27  1  0      
 27 28  1  0      
 27 31  2  0      
 28 33  2  0      
 29 30  1  0      
 35 29  2  0      
 30 32  1  0      
 30 34  2  0      
 36 31  1  0      
 31 60  1  0      
 37 32  2  0      
 33 39  1  0      
 33 61  1  0      
 34 40  1  0      
 34 62  1  0      
 41 35  1  0      
 35 63  1  0      
 39 36  2  0      
 36 64  1  0      
 38 37  1  0      
 37 65  1  0      
 40 38  2  0      
 38 42  1  0      
 39 66  1  0      
 40 67  1  0      
 41 68  1  0      
M  END
