
  Chem3D Core 15.001121613313D

 58 61  0  0  0  0  0  0  0  0999 V2000
   -5.1314   -1.7389   -4.1832 F   0  0  0  0  0  0  0  0  0  0  0  0
   -5.2903    0.3644   -4.4915 F   0  0  0  0  0  0  0  0  0  0  0  0
   -5.4289   -0.4314   -2.5192 F   0  0  0  0  0  0  0  0  0  0  0  0
    0.9136   -2.1059   -4.4526 F   0  0  0  0  0  0  0  0  0  0  0  0
    0.1968   -1.0125   -6.1366 F   0  0  0  0  0  0  0  0  0  0  0  0
   -0.7448   -2.8433   -5.5794 F   0  0  0  0  0  0  0  0  0  0  0  0
   -0.2358    2.8304    5.9975 F   0  0  0  0  0  0  0  0  0  0  0  0
   -0.3689    0.5129   -0.1872 O   0  0  0  0  0  0  0  0  0  0  0  0
   -1.5145   -1.4677   -0.3932 O   0  0  0  0  0  0  0  0  0  0  0  0
    4.6061   -2.9532    4.3704 O   0  0  0  0  0  0  0  0  0  0  0  0
    0.3671   -1.6618    1.7415 N   0  0  0  0  0  0  0  0  0  0  0  0
    2.9988   -1.9119    3.2431 N   0  0  0  0  0  0  0  0  0  0  0  0
    3.6850   -2.1462    1.2731 N   0  0  0  0  0  0  0  0  0  0  0  0
    4.5752   -2.7361    2.1038 N   0  0  0  0  0  0  0  0  0  0  0  0
   -0.8191   -0.8134    1.8187 C   0  0  0  0  0  0  0  0  0  0  0  0
   -1.2967   -0.3467    0.4398 C   0  0  0  0  0  0  0  0  0  0  0  0
   -1.4555    0.4907   -2.3908 C   0  0  0  0  0  0  0  0  0  0  0  0
   -3.3055   -0.3735   -3.5580 C   0  0  0  0  0  0  0  0  0  0  0  0
   -1.1227   -0.9344   -4.2349 C   0  0  0  0  0  0  0  0  0  0  0  0
   -0.8523    1.3045   -1.2568 C   0  0  0  0  0  0  0  0  0  0  0  0
   -0.6734    0.2108    2.9404 C   0  0  0  0  0  0  0  0  0  0  0  0
   -0.6463   -0.1746   -3.2340 C   0  0  0  0  0  0  0  0  0  0  0  0
   -2.7826    0.3713   -2.5680 C   0  0  0  0  0  0  0  0  0  0  0  0
   -2.4571   -1.0482   -4.3542 C   0  0  0  0  0  0  0  0  0  0  0  0
   -4.8021   -0.5601   -3.6784 C   0  0  0  0  0  0  0  0  0  0  0  0
   -0.1835   -1.7443   -5.1004 C   0  0  0  0  0  0  0  0  0  0  0  0
    1.5968   -0.9515    1.4107 C   0  0  0  0  0  0  0  0  0  0  0  0
    0.1079   -2.7716    0.8393 C   0  0  0  0  0  0  0  0  0  0  0  0
    2.7700   -1.6750    2.0137 C   0  0  0  0  0  0  0  0  0  0  0  0
   -0.3998   -2.3123   -0.5233 C   0  0  0  0  0  0  0  0  0  0  0  0
   -0.2211   -0.1849    4.1469 C   0  0  0  0  0  0  0  0  0  0  0  0
   -0.9918    1.5101    2.8021 C   0  0  0  0  0  0  0  0  0  0  0  0
   -1.6826    2.4978   -0.7772 C   0  0  0  0  0  0  0  0  0  0  0  0
   -0.0702    0.6784    5.1629 C   0  0  0  0  0  0  0  0  0  0  0  0
   -0.8462    2.3824    3.8116 C   0  0  0  0  0  0  0  0  0  0  0  0
   -0.3798    1.9729    5.0003 C   0  0  0  0  0  0  0  0  0  0  0  0
    4.0823   -2.5572    3.3613 C   0  0  0  0  0  0  0  0  0  0  0  0
    2.3826   -1.6251    4.0373 H   0  0  0  0  0  0  0  0  0  0  0  0
    5.4289   -3.2174    1.8853 H   0  0  0  0  0  0  0  0  0  0  0  0
   -1.6552   -1.4567    2.2058 H   0  0  0  0  0  0  0  0  0  0  0  0
   -2.2771    0.1690    0.5448 H   0  0  0  0  0  0  0  0  0  0  0  0
    0.0690    1.7795   -1.6861 H   0  0  0  0  0  0  0  0  0  0  0  0
    0.4435   -0.1068   -3.0844 H   0  0  0  0  0  0  0  0  0  0  0  0
   -3.4674    0.8804   -1.8744 H   0  0  0  0  0  0  0  0  0  0  0  0
   -2.8686   -1.7078   -5.1343 H   0  0  0  0  0  0  0  0  0  0  0  0
    1.6150    0.0648    1.8683 H   0  0  0  0  0  0  0  0  0  0  0  0
    1.7418   -0.8091    0.3185 H   0  0  0  0  0  0  0  0  0  0  0  0
    1.0194   -3.4032    0.7186 H   0  0  0  0  0  0  0  0  0  0  0  0
   -0.6603   -3.4424    1.2960 H   0  0  0  0  0  0  0  0  0  0  0  0
   -0.7256   -3.1917   -1.1268 H   0  0  0  0  0  0  0  0  0  0  0  0
    0.3901   -1.8074   -1.1196 H   0  0  0  0  0  0  0  0  0  0  0  0
    0.0358   -1.2430    4.3210 H   0  0  0  0  0  0  0  0  0  0  0  0
   -1.3866    1.8916    1.8522 H   0  0  0  0  0  0  0  0  0  0  0  0
   -1.9712    3.1474   -1.6357 H   0  0  0  0  0  0  0  0  0  0  0  0
   -1.0965    3.1374   -0.0780 H   0  0  0  0  0  0  0  0  0  0  0  0
   -2.6190    2.2104   -0.2526 H   0  0  0  0  0  0  0  0  0  0  0  0
    0.3066    0.3236    6.1366 H   0  0  0  0  0  0  0  0  0  0  0  0
   -1.1140    3.4424    3.6659 H   0  0  0  0  0  0  0  0  0  0  0  0
  1 25  1  0      
  2 25  1  0      
  3 25  1  0      
  4 26  1  0      
  5 26  1  0      
  6 26  1  0      
  7 36  1  0      
 16  8  1  0      
  8 20  1  0      
 16  9  1  0      
  9 30  1  0      
 10 37  2  0      
 11 15  1  0      
 11 27  1  0      
 11 28  1  0      
 29 12  1  0      
 12 37  1  0      
 12 38  1  0      
 14 13  1  0      
 13 29  2  0      
 14 37  1  0      
 14 39  1  0      
 15 16  1  0      
 15 21  1  0      
 15 40  1  0      
 16 41  1  0      
 17 20  1  0      
 17 22  1  0      
 17 23  2  0      
 18 23  1  0      
 24 18  2  0      
 18 25  1  0      
 22 19  2  0      
 19 24  1  0      
 19 26  1  0      
 20 33  1  0      
 20 42  1  0      
 21 31  1  0      
 21 32  2  0      
 22 43  1  0      
 23 44  1  0      
 24 45  1  0      
 27 29  1  0      
 27 46  1  0      
 27 47  1  0      
 30 28  1  0      
 28 48  1  0      
 28 49  1  0      
 30 50  1  0      
 30 51  1  0      
 31 34  2  0      
 31 52  1  0      
 35 32  1  0      
 32 53  1  0      
 33 54  1  0      
 33 55  1  0      
 33 56  1  0      
 34 36  1  0      
 34 57  1  0      
 36 35  2  0      
 35 58  1  0      
M  END
