
  Chem3D Core 15.001121613313D

 71 73  0  0  0  0  0  0  0  0999 V2000
   -2.5732    1.1708   -0.5787 S   0  0  0  0  0  0  0  0  0  0  0  0
   -1.2473    2.2452    2.4257 O   0  0  0  0  0  0  0  0  0  0  0  0
   -4.2448    1.8052    3.2311 O   0  0  0  0  0  0  0  0  0  0  0  0
   -4.8460    0.2828    4.7923 O   0  0  0  0  0  0  0  0  0  0  0  0
   -3.4022    1.3331    0.6075 O   0  0  0  0  0  0  0  0  0  0  0  0
   -2.0115    2.2882   -1.3278 O   0  0  0  0  0  0  0  0  0  0  0  0
   -1.8428    0.1648    3.0739 N   0  0  0  0  0  0  0  0  0  0  0  0
   -1.3642    0.0782   -0.0693 N   0  0  0  0  0  0  0  0  0  0  0  0
   -1.3775    0.1021   -3.0983 N   0  0  0  0  0  0  0  0  0  0  0  0
    3.2320    1.2300   -2.3364 N   0  0  0  0  0  0  0  0  0  0  0  0
    4.7564    1.4335   -3.8891 N   0  0  0  0  0  0  0  0  0  0  0  0
    4.3426    3.1643   -2.7167 N   0  0  0  0  0  0  0  0  0  0  0  0
   -2.3400   -1.7647    5.2485 C   0  0  0  0  0  0  0  0  0  0  0  0
   -2.1066   -0.2714    5.5173 C   0  0  0  0  0  0  0  0  0  0  0  0
   -2.4857    0.6169    4.3158 C   0  0  0  0  0  0  0  0  0  0  0  0
   -1.6071   -2.1439    3.9555 C   0  0  0  0  0  0  0  0  0  0  0  0
   -2.0691   -1.2539    2.7948 C   0  0  0  0  0  0  0  0  0  0  0  0
   -0.4582    0.4891    1.0133 C   0  0  0  0  0  0  0  0  0  0  0  0
   -1.2122    1.0549    2.2268 C   0  0  0  0  0  0  0  0  0  0  0  0
   -1.8720   -2.6272    6.4309 C   0  0  0  0  0  0  0  0  0  0  0  0
   -3.9889    0.8471    4.1480 C   0  0  0  0  0  0  0  0  0  0  0  0
    0.6135    1.4637    0.4712 C   0  0  0  0  0  0  0  0  0  0  0  0
   -1.3724   -0.8503   -5.3771 C   0  0  0  0  0  0  0  0  0  0  0  0
   -2.0951   -2.0425   -4.7397 C   0  0  0  0  0  0  0  0  0  0  0  0
   -2.4076   -0.5597   -2.7534 C   0  0  0  0  0  0  0  0  0  0  0  0
   -2.8228   -1.6152   -3.4835 C   0  0  0  0  0  0  0  0  0  0  0  0
   -0.5422   -0.1813   -4.2790 C   0  0  0  0  0  0  0  0  0  0  0  0
   -3.0760   -0.1993   -1.6358 C   0  0  0  0  0  0  0  0  0  0  0  0
    1.4616    0.8586   -0.6615 C   0  0  0  0  0  0  0  0  0  0  0  0
   -0.5050   -1.2740   -6.5703 C   0  0  0  0  0  0  0  0  0  0  0  0
   -3.9092   -2.3029   -3.0916 C   0  0  0  0  0  0  0  0  0  0  0  0
   -4.1591   -0.9049   -1.2632 C   0  0  0  0  0  0  0  0  0  0  0  0
    2.4612    1.8706   -1.2450 C   0  0  0  0  0  0  0  0  0  0  0  0
   -4.5786   -1.9521   -1.9860 C   0  0  0  0  0  0  0  0  0  0  0  0
    4.0794    1.9456   -2.9474 C   0  0  0  0  0  0  0  0  0  0  0  0
   -1.8191   -0.8171    0.1769 H   0  0  0  0  0  0  0  0  0  0  0  0
   -1.0875    0.9157   -2.5035 H   0  0  0  0  0  0  0  0  0  0  0  0
    5.4662    2.0003   -4.4152 H   0  0  0  0  0  0  0  0  0  0  0  0
    4.6106    0.4280   -4.1537 H   0  0  0  0  0  0  0  0  0  0  0  0
    5.0672    3.6658   -3.2871 H   0  0  0  0  0  0  0  0  0  0  0  0
    3.8558    3.7084   -1.9637 H   0  0  0  0  0  0  0  0  0  0  0  0
   -3.4797    2.0320    2.6778 H   0  0  0  0  0  0  0  0  0  0  0  0
   -3.4330   -1.9481    5.1021 H   0  0  0  0  0  0  0  0  0  0  0  0
   -1.0215   -0.1244    5.7391 H   0  0  0  0  0  0  0  0  0  0  0  0
   -2.6612    0.0483    6.4308 H   0  0  0  0  0  0  0  0  0  0  0  0
   -2.1023    1.6265    4.6093 H   0  0  0  0  0  0  0  0  0  0  0  0
   -0.5059   -2.0284    4.0931 H   0  0  0  0  0  0  0  0  0  0  0  0
   -1.8006   -3.2162    3.7130 H   0  0  0  0  0  0  0  0  0  0  0  0
   -1.5518   -1.6165    1.8834 H   0  0  0  0  0  0  0  0  0  0  0  0
   -3.1562   -1.4091    2.5998 H   0  0  0  0  0  0  0  0  0  0  0  0
    0.1183   -0.4032    1.3581 H   0  0  0  0  0  0  0  0  0  0  0  0
   -0.7825   -2.4983    6.6210 H   0  0  0  0  0  0  0  0  0  0  0  0
   -2.0575   -3.7084    6.2371 H   0  0  0  0  0  0  0  0  0  0  0  0
   -2.4156   -2.3552    7.3645 H   0  0  0  0  0  0  0  0  0  0  0  0
    0.1360    2.4009    0.1036 H   0  0  0  0  0  0  0  0  0  0  0  0
    1.2954    1.7593    1.3047 H   0  0  0  0  0  0  0  0  0  0  0  0
   -2.1409   -0.1192   -5.7363 H   0  0  0  0  0  0  0  0  0  0  0  0
   -2.8019   -2.4807   -5.4827 H   0  0  0  0  0  0  0  0  0  0  0  0
   -1.3611   -2.8342   -4.4597 H   0  0  0  0  0  0  0  0  0  0  0  0
   -0.1130    0.7783   -4.6499 H   0  0  0  0  0  0  0  0  0  0  0  0
    0.3063   -0.8312   -3.9633 H   0  0  0  0  0  0  0  0  0  0  0  0
    2.0123   -0.0332   -0.2783 H   0  0  0  0  0  0  0  0  0  0  0  0
    0.8034    0.5070   -1.4893 H   0  0  0  0  0  0  0  0  0  0  0  0
    0.2776   -2.0038   -6.2624 H   0  0  0  0  0  0  0  0  0  0  0  0
   -1.1232   -1.7515   -7.3645 H   0  0  0  0  0  0  0  0  0  0  0  0
    0.0080   -0.3949   -7.0229 H   0  0  0  0  0  0  0  0  0  0  0  0
   -4.2584   -3.1692   -3.6775 H   0  0  0  0  0  0  0  0  0  0  0  0
   -4.7266   -0.6471   -0.3535 H   0  0  0  0  0  0  0  0  0  0  0  0
    3.1489    2.2099   -0.4341 H   0  0  0  0  0  0  0  0  0  0  0  0
    1.8941    2.7485   -1.6376 H   0  0  0  0  0  0  0  0  0  0  0  0
   -5.4662   -2.5256   -1.6705 H   0  0  0  0  0  0  0  0  0  0  0  0
  1  5  2  0      
  1  6  2  0      
  1  8  1  0      
  1 28  1  0      
  2 19  2  0      
  3 21  1  0      
  3 42  1  0      
  4 21  2  0      
  7 15  1  0      
  7 17  1  0      
  7 19  1  0      
 18  8  1  0      
  8 36  1  0      
  9 25  1  0      
  9 27  1  0      
  9 37  1  0      
 10 33  1  0      
 10 35  2  0      
 11 35  1  0      
 11 38  1  0      
 11 39  1  0      
 12 35  1  0      
 12 40  1  0      
 12 41  1  0      
 14 13  1  0      
 13 16  1  0      
 13 20  1  0      
 13 43  1  0      
 15 14  1  0      
 14 44  1  0      
 14 45  1  0      
 15 21  1  0      
 15 46  1  0      
 16 17  1  0      
 16 47  1  0      
 16 48  1  0      
 17 49  1  0      
 17 50  1  0      
 18 19  1  0      
 18 22  1  0      
 18 51  1  0      
 20 52  1  0      
 20 53  1  0      
 20 54  1  0      
 22 29  1  0      
 22 55  1  0      
 22 56  1  0      
 23 24  1  0      
 27 23  1  0      
 23 30  1  0      
 23 57  1  0      
 24 26  1  0      
 24 58  1  0      
 24 59  1  0      
 26 25  2  0      
 28 25  1  0      
 26 31  1  0      
 27 60  1  0      
 27 61  1  0      
 32 28  2  0      
 29 33  1  0      
 29 62  1  0      
 29 63  1  0      
 30 64  1  0      
 30 65  1  0      
 30 66  1  0      
 31 34  2  0      
 31 67  1  0      
 34 32  1  0      
 32 68  1  0      
 33 69  1  0      
 33 70  1  0      
 34 71  1  0      
M  END
