
  Chem3D Core 15.001121613313D

 29 31  0  0  0  0  0  0  0  0999 V2000
    5.7401   -0.6350   -0.2817 O   0  0  0  0  0  0  0  0  0  0  0  0
    4.6120   -0.2635   -0.0893 C   0  0  0  0  0  0  0  0  0  0  0  0
    3.8663    1.3545   -0.2330 S   0  0  0  0  0  0  0  0  0  0  0  0
    2.4651    0.8946   -0.0369 C   0  0  0  0  0  0  0  0  0  0  0  0
    1.4500    1.7476   -0.2908 C   0  0  0  0  0  0  0  0  0  0  0  0
    0.1167    1.5656   -0.2718 C   0  0  0  0  0  0  0  0  0  0  0  0
   -0.7683    2.5484   -0.4866 C   0  0  0  0  0  0  0  0  0  0  0  0
   -1.9572    1.9506   -0.3767 C   0  0  0  0  0  0  0  0  0  0  0  0
   -1.6917    0.6561   -0.1276 C   0  0  0  0  0  0  0  0  0  0  0  0
   -0.4628    0.4949   -0.0847 O   0  0  0  0  0  0  0  0  0  0  0  0
   -2.5470   -0.3716    0.0947 C   0  0  0  0  0  0  0  0  0  0  0  0
   -2.0214   -1.5717    0.4272 C   0  0  0  0  0  0  0  0  0  0  0  0
   -2.7718   -2.6499    0.6964 C   0  0  0  0  0  0  0  0  0  0  0  0
   -4.1046   -2.5606    0.6324 C   0  0  0  0  0  0  0  0  0  0  0  0
   -4.6415   -1.3838    0.2871 C   0  0  0  0  0  0  0  0  0  0  0  0
   -3.8975   -0.2924    0.0247 C   0  0  0  0  0  0  0  0  0  0  0  0
   -4.5608    0.8305   -0.3608 O   0  0  0  0  0  0  0  0  0  0  0  0
   -4.8689   -3.6105    0.8854 F   0  0  0  0  0  0  0  0  0  0  0  0
    2.3722   -0.3828    0.4587 C   0  0  0  0  0  0  0  0  0  0  0  0
    1.4486   -0.9504    0.9922 O   0  0  0  0  0  0  0  0  0  0  0  0
    3.5759   -1.0408    0.3311 N   0  0  0  0  0  0  0  0  0  0  0  0
    1.7276    2.7809   -0.5852 H   0  0  0  0  0  0  0  0  0  0  0  0
   -0.5786    3.6105   -0.6853 H   0  0  0  0  0  0  0  0  0  0  0  0
   -2.9058    2.4873   -0.4663 H   0  0  0  0  0  0  0  0  0  0  0  0
   -0.9337   -1.7292    0.5055 H   0  0  0  0  0  0  0  0  0  0  0  0
   -2.2986   -3.6082    0.9689 H   0  0  0  0  0  0  0  0  0  0  0  0
   -5.7401   -1.3146    0.2094 H   0  0  0  0  0  0  0  0  0  0  0  0
   -4.0067    1.3124   -0.9922 H   0  0  0  0  0  0  0  0  0  0  0  0
    3.6867   -2.0042    0.5897 H   0  0  0  0  0  0  0  0  0  0  0  0
  1  2  2  0      
  2  3  1  0      
  2 21  1  0      
  3  4  1  0      
  4  5  2  0      
  4 19  1  0      
  5  6  1  0      
  5 22  1  0      
  6  7  2  0      
  6 10  1  0      
  7  8  1  0      
  7 23  1  0      
  8  9  2  0      
  8 24  1  0      
  9 10  1  0      
  9 11  1  0      
 11 12  1  0      
 11 16  2  0      
 12 13  2  0      
 12 25  1  0      
 13 14  1  0      
 13 26  1  0      
 14 15  2  0      
 14 18  1  0      
 15 16  1  0      
 15 27  1  0      
 16 17  1  0      
 17 28  1  0      
 19 20  2  0      
 19 21  1  0      
 21 29  1  0      
M  END
