
  Chem3D Core 15.001121613303D

 24 26  0  0  0  0  0  0  0  0999 V2000
    3.3103   -1.9344    0.9660 S   0  0  0  0  0  0  0  0  0  0  0  0
   -3.1274    3.6254   -1.0977 F   0  0  0  0  0  0  0  0  0  0  0  0
   -3.3103    3.8894    1.0767 F   0  0  0  0  0  0  0  0  0  0  0  0
   -2.0562    2.1193    0.2643 O   0  0  0  0  0  0  0  0  0  0  0  0
   -1.2440    4.1916    0.0896 O   0  0  0  0  0  0  0  0  0  0  0  0
    0.3100   -1.4008   -0.8366 O   0  0  0  0  0  0  0  0  0  0  0  0
    2.7780   -4.6130    1.0977 O   0  0  0  0  0  0  0  0  0  0  0  0
    1.3131   -3.1443    0.1375 N   0  0  0  0  0  0  0  0  0  0  0  0
   -0.8295    2.1279    0.3251 C   0  0  0  0  0  0  0  0  0  0  0  0
   -0.3457    3.3690    0.2322 C   0  0  0  0  0  0  0  0  0  0  0  0
    1.3231    1.2517    0.5356 C   0  0  0  0  0  0  0  0  0  0  0  0
   -0.0146    1.0774    0.4896 C   0  0  0  0  0  0  0  0  0  0  0  0
    0.9699    3.5890    0.3167 C   0  0  0  0  0  0  0  0  0  0  0  0
    1.7773    2.5271    0.4857 C   0  0  0  0  0  0  0  0  0  0  0  0
    2.2186    0.2557    0.7240 C   0  0  0  0  0  0  0  0  0  0  0  0
   -2.4775    3.4732    0.0855 C   0  0  0  0  0  0  0  0  0  0  0  0
    2.1602   -1.0836    0.5538 C   0  0  0  0  0  0  0  0  0  0  0  0
    1.1784   -1.7932   -0.0933 C   0  0  0  0  0  0  0  0  0  0  0  0
    2.4617   -3.4965    0.7794 C   0  0  0  0  0  0  0  0  0  0  0  0
    0.6519   -3.8160   -0.2068 H   0  0  0  0  0  0  0  0  0  0  0  0
   -0.4983    0.1047    0.6492 H   0  0  0  0  0  0  0  0  0  0  0  0
    1.3727    4.6130    0.2580 H   0  0  0  0  0  0  0  0  0  0  0  0
    2.8575    2.7464    0.5580 H   0  0  0  0  0  0  0  0  0  0  0  0
    3.1993    0.6282    1.0879 H   0  0  0  0  0  0  0  0  0  0  0  0
  1 17  1  0      
  1 19  1  0      
  2 16  1  0      
  3 16  1  0      
  9  4  1  0      
  4 16  1  0      
  5 10  1  0      
 16  5  1  0      
  6 18  2  0      
  7 19  2  0      
  8 18  1  0      
  8 19  1  0      
  8 20  1  0      
  9 10  2  0      
 12  9  1  0      
 10 13  1  0      
 11 12  2  0      
 14 11  1  0      
 11 15  1  0      
 12 21  1  0      
 14 13  2  0      
 13 22  1  0      
 14 23  1  0      
 15 17  2  0      
 15 24  1  0      
 17 18  1  0      
M  END
