
  Chem3D Core 15.010021515573D

 65 69  0  0  0  0  0  0  0  0999 V2000
    4.5620    3.0971    1.4640 F   0  0  0  0  0  0  0  0  0  0  0  0
   -0.2937   -6.7838   -4.6527 O   0  0  0  0  0  0  0  0  0  0  0  0
   -0.2928   -0.9202    0.4640 N   0  0  0  0  0  0  0  0  0  0  0  0
   -0.6269    2.2149    3.3637 N   0  0  0  0  0  0  0  0  0  0  0  0
   -0.8459    4.2568    4.2500 N   0  0  0  0  0  0  0  0  0  0  0  0
   -2.3711    3.6476    3.0187 N   0  0  0  0  0  0  0  0  0  0  0  0
   -1.0394    1.1494    2.4251 C   0  0  0  0  0  0  0  0  0  0  0  0
   -0.5933    1.4904    0.9991 C   0  0  0  0  0  0  0  0  0  0  0  0
   -0.3895   -0.1774    2.8324 C   0  0  0  0  0  0  0  0  0  0  0  0
   -0.9161    0.3312    0.0446 C   0  0  0  0  0  0  0  0  0  0  0  0
   -0.7132   -1.2806    1.8125 C   0  0  0  0  0  0  0  0  0  0  0  0
   -0.5745   -1.9733   -0.5097 C   0  0  0  0  0  0  0  0  0  0  0  0
    0.1538   -3.3020   -0.2360 C   0  0  0  0  0  0  0  0  0  0  0  0
   -1.2671    3.2940    3.5381 C   0  0  0  0  0  0  0  0  0  0  0  0
    0.0193   -4.2436   -1.4151 C   0  0  0  0  0  0  0  0  0  0  0  0
   -1.6373    5.2441    4.2348 C   0  0  0  0  0  0  0  0  0  0  0  0
    0.4279    4.2155    4.9902 C   0  0  0  0  0  0  0  0  0  0  0  0
   -2.6208    4.8192    3.4281 C   0  0  0  0  0  0  0  0  0  0  0  0
   -1.6642    6.4602    4.7936 C   0  0  0  0  0  0  0  0  0  0  0  0
    1.5763    3.9167    4.0481 C   0  0  0  0  0  0  0  0  0  0  0  0
    0.9999   -4.3723   -2.3235 C   0  0  0  0  0  0  0  0  0  0  0  0
   -1.0918   -4.9772   -1.5924 C   0  0  0  0  0  0  0  0  0  0  0  0
   -3.6698    5.6054    3.1543 C   0  0  0  0  0  0  0  0  0  0  0  0
   -2.7184    7.2489    4.5208 C   0  0  0  0  0  0  0  0  0  0  0  0
   -3.7081    6.8276    3.7124 C   0  0  0  0  0  0  0  0  0  0  0  0
    0.8643   -5.2087   -3.3635 C   0  0  0  0  0  0  0  0  0  0  0  0
   -1.2160   -5.8105   -2.6376 C   0  0  0  0  0  0  0  0  0  0  0  0
    2.3932    2.8671    4.2499 C   0  0  0  0  0  0  0  0  0  0  0  0
    1.7840    4.6894    2.9671 C   0  0  0  0  0  0  0  0  0  0  0  0
   -0.2405   -5.9553   -3.5571 C   0  0  0  0  0  0  0  0  0  0  0  0
    3.3867    2.5928    3.3906 C   0  0  0  0  0  0  0  0  0  0  0  0
    2.7772    4.4197    2.1062 C   0  0  0  0  0  0  0  0  0  0  0  0
    3.5837    3.3675    2.3129 C   0  0  0  0  0  0  0  0  0  0  0  0
   -1.4583   -7.5463   -4.8698 C   0  0  0  0  0  0  0  0  0  0  0  0
    0.2743    2.0939    3.8870 H   0  0  0  0  0  0  0  0  0  0  0  0
   -2.1496    1.0404    2.4683 H   0  0  0  0  0  0  0  0  0  0  0  0
   -1.0952    2.4249    0.6528 H   0  0  0  0  0  0  0  0  0  0  0  0
    0.5063    1.6837    0.9899 H   0  0  0  0  0  0  0  0  0  0  0  0
    0.7177   -0.0451    2.8911 H   0  0  0  0  0  0  0  0  0  0  0  0
   -0.7406   -0.4742    3.8495 H   0  0  0  0  0  0  0  0  0  0  0  0
   -0.5557    0.6181   -0.9731 H   0  0  0  0  0  0  0  0  0  0  0  0
   -2.0244    0.2147   -0.0218 H   0  0  0  0  0  0  0  0  0  0  0  0
   -0.1851   -2.2003    2.1571 H   0  0  0  0  0  0  0  0  0  0  0  0
   -1.8077   -1.4971    1.8367 H   0  0  0  0  0  0  0  0  0  0  0  0
   -0.2383   -1.6275   -1.5182 H   0  0  0  0  0  0  0  0  0  0  0  0
   -1.6722   -2.1621   -0.5813 H   0  0  0  0  0  0  0  0  0  0  0  0
   -0.2609   -3.8152    0.6621 H   0  0  0  0  0  0  0  0  0  0  0  0
    1.2297   -3.1026   -0.0208 H   0  0  0  0  0  0  0  0  0  0  0  0
    0.6572    5.1794    5.4972 H   0  0  0  0  0  0  0  0  0  0  0  0
    0.3480    3.4542    5.8003 H   0  0  0  0  0  0  0  0  0  0  0  0
   -0.8608    6.8174    5.4551 H   0  0  0  0  0  0  0  0  0  0  0  0
    1.9269   -3.7845   -2.2202 H   0  0  0  0  0  0  0  0  0  0  0  0
   -1.9191   -4.8922   -0.8677 H   0  0  0  0  0  0  0  0  0  0  0  0
   -4.4766    5.2578    2.4895 H   0  0  0  0  0  0  0  0  0  0  0  0
   -2.7716    8.2570    4.9659 H   0  0  0  0  0  0  0  0  0  0  0  0
   -4.5620    7.4937    3.5025 H   0  0  0  0  0  0  0  0  0  0  0  0
    1.6915   -5.2867   -4.0901 H   0  0  0  0  0  0  0  0  0  0  0  0
   -2.1578   -6.3767   -2.7141 H   0  0  0  0  0  0  0  0  0  0  0  0
    2.2465    2.2110    5.1237 H   0  0  0  0  0  0  0  0  0  0  0  0
    1.1261    5.5537    2.7770 H   0  0  0  0  0  0  0  0  0  0  0  0
    4.0426    1.7243    3.5679 H   0  0  0  0  0  0  0  0  0  0  0  0
    2.9290    5.0620    1.2229 H   0  0  0  0  0  0  0  0  0  0  0  0
   -1.3082   -8.1386   -5.8003 H   0  0  0  0  0  0  0  0  0  0  0  0
   -1.6182   -8.2570   -4.0285 H   0  0  0  0  0  0  0  0  0  0  0  0
   -2.3356   -6.8785   -5.0212 H   0  0  0  0  0  0  0  0  0  0  0  0
  1 33  1  0      
  2 30  1  0      
  2 34  1  0      
  3 10  1  0      
  3 11  1  0      
  3 12  1  0      
  4  7  1  0      
  4 14  1  0      
  4 35  1  0      
  5 14  1  0      
  5 16  1  0      
  5 17  1  0      
 14  6  2  0      
  6 18  1  0      
  8  7  1  0      
  7  9  1  0      
  7 36  1  0      
 10  8  1  0      
  8 37  1  0      
  8 38  1  0      
  9 11  1  0      
  9 39  1  0      
  9 40  1  0      
 10 41  1  0      
 10 42  1  0      
 11 43  1  0      
 11 44  1  0      
 12 13  1  0      
 12 45  1  0      
 12 46  1  0      
 13 15  1  0      
 13 47  1  0      
 13 48  1  0      
 15 21  1  0      
 15 22  2  0      
 18 16  1  0      
 19 16  2  0      
 17 20  1  0      
 17 49  1  0      
 17 50  1  0      
 18 23  2  0      
 24 19  1  0      
 19 51  1  0      
 20 28  1  0      
 20 29  2  0      
 21 26  2  0      
 21 52  1  0      
 27 22  1  0      
 22 53  1  0      
 23 25  1  0      
 23 54  1  0      
 25 24  2  0      
 24 55  1  0      
 25 56  1  0      
 26 30  1  0      
 26 57  1  0      
 30 27  2  0      
 27 58  1  0      
 28 31  2  0      
 28 59  1  0      
 32 29  1  0      
 29 60  1  0      
 31 33  1  0      
 31 61  1  0      
 33 32  2  0      
 32 62  1  0      
 34 63  1  0      
 34 64  1  0      
 34 65  1  0      
M  END
