
  Chem3D Core 15.001121613303D

123130  0  0  0  0  0  0  0  0999 V2000
    0.8388    0.1719    0.0888 C   0  0  0  0  0  0  0  0  0  0  0  0
   -0.3912   -0.7311    0.0963 C   0  0  0  0  0  0  0  0  0  0  0  0
    3.4064    0.2827    0.1647 C   0  0  0  0  0  0  0  0  0  0  0  0
    3.2234    1.8334    0.1085 C   0  0  0  0  0  0  0  0  0  0  0  0
    2.1576   -0.4116   -0.4325 C   0  0  0  0  0  0  0  0  0  0  0  0
   -0.2555    0.3423   -0.9505 C   0  0  0  0  0  0  0  0  0  0  0  0
   -0.2853   -2.1996   -0.3300 C   0  0  0  0  0  0  0  0  0  0  0  0
    4.6700    2.3598    0.3615 C   0  0  0  0  0  0  0  0  0  0  0  0
    2.2051   -4.4574   -1.8996 C   0  0  0  0  0  0  0  0  0  0  0  0
    5.0669    3.8530    0.2161 C   0  0  0  0  0  0  0  0  0  0  0  0
    1.7756   -5.7068   -2.6388 C   0  0  0  0  0  0  0  0  0  0  0  0
   -4.8283    0.3282   -2.3905 C   0  0  0  0  0  0  0  0  0  0  0  0
    2.9869   -6.3335   -3.2926 C   0  0  0  0  0  0  0  0  0  0  0  0
   -4.2716   -0.0878   -1.0440 C   0  0  0  0  0  0  0  0  0  0  0  0
    3.1766   -4.7941   -0.9297 O   0  0  0  0  0  0  0  0  0  0  0  0
    1.0124   -2.5619   -1.0809 C   0  0  0  0  0  0  0  0  0  0  0  0
   -1.6243   -2.7144   -0.9601 C   0  0  0  0  0  0  0  0  0  0  0  0
    4.0786    4.6142    0.8603 O   0  0  0  0  0  0  0  0  0  0  0  0
    4.0498   -6.5983   -2.2479 C   0  0  0  0  0  0  0  0  0  0  0  0
    4.6971    0.1033   -0.6598 C   0  0  0  0  0  0  0  0  0  0  0  0
    5.5864    1.2804   -0.2490 C   0  0  0  0  0  0  0  0  0  0  0  0
   -6.0098    1.2550   -2.2003 C   0  0  0  0  0  0  0  0  0  0  0  0
    4.3553   -5.3200   -1.4781 C   0  0  0  0  0  0  0  0  0  0  0  0
    2.2024   -1.9440   -0.3404 C   0  0  0  0  0  0  0  0  0  0  0  0
    1.1214   -3.9590   -1.1395 O   0  0  0  0  0  0  0  0  0  0  0  0
    0.9395    1.2552    1.1703 C   0  0  0  0  0  0  0  0  0  0  0  0
   -2.8384   -1.8907   -0.4301 C   0  0  0  0  0  0  0  0  0  0  0  0
   -3.9222    1.0503   -0.2820 O   0  0  0  0  0  0  0  0  0  0  0  0
   -3.0456   -0.7661   -1.2440 O   0  0  0  0  0  0  0  0  0  0  0  0
   -1.4463   -0.5260    1.1826 C   0  0  0  0  0  0  0  0  0  0  0  0
    2.1602    2.2032    1.1609 C   0  0  0  0  0  0  0  0  0  0  0  0
    4.6950    5.5814    1.6626 C   0  0  0  0  0  0  0  0  0  0  0  0
   -5.5793    2.4238   -1.3419 C   0  0  0  0  0  0  0  0  0  0  0  0
    3.7223    6.2011    2.6668 C   0  0  0  0  0  0  0  0  0  0  0  0
    6.3757    4.1194    0.9967 C   0  0  0  0  0  0  0  0  0  0  0  0
   -5.0190    1.8951   -0.0340 C   0  0  0  0  0  0  0  0  0  0  0  0
   -2.6343   -1.4901    1.0335 C   0  0  0  0  0  0  0  0  0  0  0  0
    5.9046    4.8651    2.2465 C   0  0  0  0  0  0  0  0  0  0  0  0
    0.8575   -5.3916   -3.6566 O   0  0  0  0  0  0  0  0  0  0  0  0
   -5.2773   -0.7998   -3.1018 O   0  0  0  0  0  0  0  0  0  0  0  0
    2.6203   -7.5422   -3.9074 O   0  0  0  0  0  0  0  0  0  0  0  0
    3.7044   -0.2862    1.5784 C   0  0  0  0  0  0  0  0  0  0  0  0
    5.1920   -7.0613   -2.9278 O   0  0  0  0  0  0  0  0  0  0  0  0
    2.7083    2.3661   -1.2482 C   0  0  0  0  0  0  0  0  0  0  0  0
   -6.4497    1.7225   -3.4499 O   0  0  0  0  0  0  0  0  0  0  0  0
    6.2998    1.7239   -1.3728 O   0  0  0  0  0  0  0  0  0  0  0  0
    5.2495    4.4138   -1.2060 C   0  0  0  0  0  0  0  0  0  0  0  0
    2.7649    6.9266    1.9361 O   0  0  0  0  0  0  0  0  0  0  0  0
   -6.7007    3.2386   -1.1077 O   0  0  0  0  0  0  0  0  0  0  0  0
    5.3173   -5.5559   -0.3204 C   0  0  0  0  0  0  0  0  0  0  0  0
   -1.6101   -2.6743   -2.5061 C   0  0  0  0  0  0  0  0  0  0  0  0
   -1.8741   -4.1975   -0.5673 C   0  0  0  0  0  0  0  0  0  0  0  0
    6.4877   -6.1976   -0.7805 O   0  0  0  0  0  0  0  0  0  0  0  0
    4.4453    7.2007    3.5753 C   0  0  0  0  0  0  0  0  0  0  0  0
    2.9661    5.1812    3.5199 C   0  0  0  0  0  0  0  0  0  0  0  0
    4.7800    2.2258    1.4693 H   0  0  0  0  0  0  0  0  0  0  0  0
    2.1957   -0.1963   -1.5291 H   0  0  0  0  0  0  0  0  0  0  0  0
   -0.1812   -2.7242    0.6552 H   0  0  0  0  0  0  0  0  0  0  0  0
   -0.0581    0.0321   -1.9723 H   0  0  0  0  0  0  0  0  0  0  0  0
   -0.8902    1.2224   -0.8817 H   0  0  0  0  0  0  0  0  0  0  0  0
    2.5993   -3.6914   -2.6019 H   0  0  0  0  0  0  0  0  0  0  0  0
    1.2789   -6.4278   -1.9495 H   0  0  0  0  0  0  0  0  0  0  0  0
   -4.0406    0.8201   -3.0070 H   0  0  0  0  0  0  0  0  0  0  0  0
    3.3869   -5.6663   -4.0916 H   0  0  0  0  0  0  0  0  0  0  0  0
   -5.0058   -0.7080   -0.4858 H   0  0  0  0  0  0  0  0  0  0  0  0
    0.9690   -2.1652   -2.1205 H   0  0  0  0  0  0  0  0  0  0  0  0
    3.7261   -7.4016   -1.5471 H   0  0  0  0  0  0  0  0  0  0  0  0
    5.1964   -0.8778   -0.4975 H   0  0  0  0  0  0  0  0  0  0  0  0
    4.4691    0.1560   -1.7486 H   0  0  0  0  0  0  0  0  0  0  0  0
    6.3527    0.9447    0.4892 H   0  0  0  0  0  0  0  0  0  0  0  0
   -6.8647    0.7176   -1.7284 H   0  0  0  0  0  0  0  0  0  0  0  0
    4.7997   -4.5592   -2.1642 H   0  0  0  0  0  0  0  0  0  0  0  0
    2.1819   -2.2899    0.7177 H   0  0  0  0  0  0  0  0  0  0  0  0
    3.1697   -2.2683   -0.7855 H   0  0  0  0  0  0  0  0  0  0  0  0
    0.9212    0.7239    2.1507 H   0  0  0  0  0  0  0  0  0  0  0  0
    0.0199    1.8848    1.1837 H   0  0  0  0  0  0  0  0  0  0  0  0
   -3.7487   -2.5306   -0.5231 H   0  0  0  0  0  0  0  0  0  0  0  0
   -0.9775   -0.7023    2.1796 H   0  0  0  0  0  0  0  0  0  0  0  0
   -1.8169    0.5233    1.1883 H   0  0  0  0  0  0  0  0  0  0  0  0
    1.8172    3.2504    0.9943 H   0  0  0  0  0  0  0  0  0  0  0  0
    2.6187    2.2066    2.1774 H   0  0  0  0  0  0  0  0  0  0  0  0
    5.0594    6.3987    0.9921 H   0  0  0  0  0  0  0  0  0  0  0  0
   -4.8222    3.0496   -1.8687 H   0  0  0  0  0  0  0  0  0  0  0  0
    7.0641    4.7861    0.4262 H   0  0  0  0  0  0  0  0  0  0  0  0
    6.9581    3.2058    1.2466 H   0  0  0  0  0  0  0  0  0  0  0  0
   -5.7864    1.3404    0.5522 H   0  0  0  0  0  0  0  0  0  0  0  0
   -4.6545    2.7396    0.5958 H   0  0  0  0  0  0  0  0  0  0  0  0
   -3.5558   -1.0391    1.4687 H   0  0  0  0  0  0  0  0  0  0  0  0
   -2.4541   -2.4089    1.6389 H   0  0  0  0  0  0  0  0  0  0  0  0
    5.6033    4.1372    3.0338 H   0  0  0  0  0  0  0  0  0  0  0  0
    6.6786    5.5512    2.6574 H   0  0  0  0  0  0  0  0  0  0  0  0
    0.6876   -6.1934   -4.1594 H   0  0  0  0  0  0  0  0  0  0  0  0
   -5.6512   -0.4962   -3.9338 H   0  0  0  0  0  0  0  0  0  0  0  0
    3.4161   -7.9556   -4.2527 H   0  0  0  0  0  0  0  0  0  0  0  0
    2.8153   -0.3089    2.2406 H   0  0  0  0  0  0  0  0  0  0  0  0
    4.0745   -1.3340    1.5278 H   0  0  0  0  0  0  0  0  0  0  0  0
    4.4971    0.2597    2.1299 H   0  0  0  0  0  0  0  0  0  0  0  0
    5.9307   -7.1514   -2.3245 H   0  0  0  0  0  0  0  0  0  0  0  0
    3.3927    2.1290   -2.0910 H   0  0  0  0  0  0  0  0  0  0  0  0
    1.7047    1.9880   -1.5276 H   0  0  0  0  0  0  0  0  0  0  0  0
    2.5627    3.4673   -1.2115 H   0  0  0  0  0  0  0  0  0  0  0  0
   -7.1734    2.3372   -3.3039 H   0  0  0  0  0  0  0  0  0  0  0  0
    6.7937    0.9894   -1.7449 H   0  0  0  0  0  0  0  0  0  0  0  0
    6.1840    4.0676   -1.6949 H   0  0  0  0  0  0  0  0  0  0  0  0
    4.4205    4.1830   -1.9008 H   0  0  0  0  0  0  0  0  0  0  0  0
    5.3259    5.5245   -1.1944 H   0  0  0  0  0  0  0  0  0  0  0  0
    2.0884    7.2553    2.5328 H   0  0  0  0  0  0  0  0  0  0  0  0
   -6.4249    4.0842   -0.7481 H   0  0  0  0  0  0  0  0  0  0  0  0
    4.8667   -6.2095    0.4597 H   0  0  0  0  0  0  0  0  0  0  0  0
    5.6257   -4.5953    0.1501 H   0  0  0  0  0  0  0  0  0  0  0  0
   -2.6067   -2.9442   -2.9238 H   0  0  0  0  0  0  0  0  0  0  0  0
   -0.8873   -3.3982   -2.9403 H   0  0  0  0  0  0  0  0  0  0  0  0
   -1.3432   -1.6708   -2.9028 H   0  0  0  0  0  0  0  0  0  0  0  0
   -1.9096   -4.3434    0.5347 H   0  0  0  0  0  0  0  0  0  0  0  0
   -2.8384   -4.5745   -0.9768 H   0  0  0  0  0  0  0  0  0  0  0  0
   -1.1013   -4.8915   -0.9583 H   0  0  0  0  0  0  0  0  0  0  0  0
    7.1734   -6.1527   -0.1119 H   0  0  0  0  0  0  0  0  0  0  0  0
    3.7248    7.7553    4.2187 H   0  0  0  0  0  0  0  0  0  0  0  0
    5.1655    6.6896    4.2527 H   0  0  0  0  0  0  0  0  0  0  0  0
    5.0097    7.9556    2.9822 H   0  0  0  0  0  0  0  0  0  0  0  0
    2.3371    4.5108    2.8964 H   0  0  0  0  0  0  0  0  0  0  0  0
    3.6526    4.5474    4.1227 H   0  0  0  0  0  0  0  0  0  0  0  0
    2.2773    5.6892    4.2325 H   0  0  0  0  0  0  0  0  0  0  0  0
  1  2  1  0      
  1  5  1  0      
  1  6  1  0      
  1 26  1  0      
  2  6  1  0      
  2  7  1  0      
  2 30  1  0      
  3  4  1  0      
  3  5  1  0      
  3 20  1  0      
  3 42  1  0      
  4  8  1  0      
  4 31  1  0      
  4 44  1  0      
  5 24  1  0      
  5 57  1  0      
  6 59  1  0      
  6 60  1  0      
  7 16  1  0      
  7 17  1  0      
  7 58  1  0      
  8 10  1  0      
  8 21  1  0      
  8 56  1  0      
  9 11  1  0      
  9 15  1  0      
  9 25  1  0      
  9 61  1  0      
 10 18  1  0      
 10 35  1  0      
 10 47  1  0      
 11 13  1  0      
 11 39  1  0      
 11 62  1  0      
 14 12  1  0      
 12 22  1  0      
 12 40  1  0      
 12 63  1  0      
 13 19  1  0      
 13 41  1  0      
 13 64  1  0      
 14 28  1  0      
 14 29  1  0      
 14 65  1  0      
 23 15  1  0      
 16 24  1  0      
 16 25  1  0      
 16 66  1  0      
 17 27  1  0      
 17 51  1  0      
 17 52  1  0      
 32 18  1  0      
 19 23  1  0      
 19 43  1  0      
 19 67  1  0      
 20 21  1  0      
 20 68  1  0      
 20 69  1  0      
 21 46  1  0      
 21 70  1  0      
 22 33  1  0      
 22 45  1  0      
 22 71  1  0      
 23 50  1  0      
 23 72  1  0      
 24 73  1  0      
 24 74  1  0      
 26 31  1  0      
 26 75  1  0      
 26 76  1  0      
 27 29  1  0      
 27 37  1  0      
 27 77  1  0      
 36 28  1  0      
 30 37  1  0      
 30 78  1  0      
 30 79  1  0      
 31 80  1  0      
 31 81  1  0      
 32 34  1  0      
 38 32  1  0      
 32 82  1  0      
 33 36  1  0      
 33 49  1  0      
 33 83  1  0      
 34 48  1  0      
 34 54  1  0      
 34 55  1  0      
 35 38  1  0      
 35 84  1  0      
 35 85  1  0      
 36 86  1  0      
 36 87  1  0      
 37 88  1  0      
 37 89  1  0      
 38 90  1  0      
 38 91  1  0      
 39 92  1  0      
 40 93  1  0      
 41 94  1  0      
 42 95  1  0      
 42 96  1  0      
 42 97  1  0      
 43 98  1  0      
 44 99  1  0      
 44100  1  0      
 44101  1  0      
 45102  1  0      
 46103  1  0      
 47104  1  0      
 47105  1  0      
 47106  1  0      
 48107  1  0      
 49108  1  0      
 50 53  1  0      
 50109  1  0      
 50110  1  0      
 51111  1  0      
 51112  1  0      
 51113  1  0      
 52114  1  0      
 52115  1  0      
 52116  1  0      
 53117  1  0      
 54118  1  0      
 54119  1  0      
 54120  1  0      
 55121  1  0      
 55122  1  0      
 55123  1  0      
M  END
