
  Chem3D Core 15.001121613313D

 68 71  0  0  0  0  0  0  0  0999 V2000
   -4.0216   -0.7286    0.2427 C   0  0  0  0  0  0  0  0  0  0  0  0
   -5.0180   -0.7180   -0.6772 C   0  0  0  0  0  0  0  0  0  0  0  0
   -4.8167   -0.2162   -1.9071 C   0  0  0  0  0  0  0  0  0  0  0  0
   -3.6174    0.2675   -2.2709 C   0  0  0  0  0  0  0  0  0  0  0  0
   -2.7835   -0.2496   -0.0933 C   0  0  0  0  0  0  0  0  0  0  0  0
   -2.6094    0.1963   -1.3670 C   0  0  0  0  0  0  0  0  0  0  0  0
   -1.7016   -0.1643    0.7377 C   0  0  0  0  0  0  0  0  0  0  0  0
   -1.3728    0.5512   -1.7626 C   0  0  0  0  0  0  0  0  0  0  0  0
   -0.3019    0.5977   -0.9639 C   0  0  0  0  0  0  0  0  0  0  0  0
   -0.4870    0.2751    0.3263 C   0  0  0  0  0  0  0  0  0  0  0  0
   -3.4721    0.8823   -3.6777 C   0  0  0  0  0  0  0  0  0  0  0  0
   -3.2376   -0.2114   -4.7311 C   0  0  0  0  0  0  0  0  0  0  0  0
   -4.5822    1.8677   -4.1083 C   0  0  0  0  0  0  0  0  0  0  0  0
   -6.2947   -1.1635   -0.4604 O   0  0  0  0  0  0  0  0  0  0  0  0
   -5.8583   -0.2599   -2.7844 O   0  0  0  0  0  0  0  0  0  0  0  0
   -4.3348   -1.2783    1.4585 C   0  0  0  0  0  0  0  0  0  0  0  0
   -5.3962   -1.7090    1.8520 O   0  0  0  0  0  0  0  0  0  0  0  0
   -1.7684   -0.4725    2.0610 O   0  0  0  0  0  0  0  0  0  0  0  0
    1.0399    0.9256   -1.5966 C   0  0  0  0  0  0  0  0  0  0  0  0
    0.5724    0.3536    1.1679 C   0  0  0  0  0  0  0  0  0  0  0  0
    2.2088    1.5973    2.1665 C   0  0  0  0  0  0  0  0  0  0  0  0
    1.1472    1.5524    1.3557 C   0  0  0  0  0  0  0  0  0  0  0  0
    1.0290   -0.7224    1.8548 C   0  0  0  0  0  0  0  0  0  0  0  0
    0.6315    2.8659    0.7922 C   0  0  0  0  0  0  0  0  0  0  0  0
    0.3625   -1.8790    1.5946 O   0  0  0  0  0  0  0  0  0  0  0  0
    2.7295    0.5350    2.8087 C   0  0  0  0  0  0  0  0  0  0  0  0
    2.0951   -0.6642    2.7087 C   0  0  0  0  0  0  0  0  0  0  0  0
    3.8486    0.7231    3.5512 C   0  0  0  0  0  0  0  0  0  0  0  0
    2.5875   -1.6990    3.4585 C   0  0  0  0  0  0  0  0  0  0  0  0
    3.6783   -1.5037    4.2416 C   0  0  0  0  0  0  0  0  0  0  0  0
    4.2959   -0.3101    4.2850 C   0  0  0  0  0  0  0  0  0  0  0  0
    5.3736   -0.1782    5.1101 O   0  0  0  0  0  0  0  0  0  0  0  0
    4.2279   -2.4443    5.0694 O   0  0  0  0  0  0  0  0  0  0  0  0
    4.6127    2.0618    3.6123 C   0  0  0  0  0  0  0  0  0  0  0  0
    4.0542    2.9337    4.7495 C   0  0  0  0  0  0  0  0  0  0  0  0
    6.1546    2.0170    3.6858 C   0  0  0  0  0  0  0  0  0  0  0  0
    2.0446   -2.9572    3.4919 C   0  0  0  0  0  0  0  0  0  0  0  0
    2.4339   -3.9358    4.0895 O   0  0  0  0  0  0  0  0  0  0  0  0
   -1.1289    0.8006   -2.8028 H   0  0  0  0  0  0  0  0  0  0  0  0
   -2.6031    1.5819   -3.7116 H   0  0  0  0  0  0  0  0  0  0  0  0
   -3.0691    0.2299   -5.7399 H   0  0  0  0  0  0  0  0  0  0  0  0
   -2.3423   -0.8249   -4.4800 H   0  0  0  0  0  0  0  0  0  0  0  0
   -4.1070   -0.9015   -4.8083 H   0  0  0  0  0  0  0  0  0  0  0  0
   -4.2568    2.4786   -4.9828 H   0  0  0  0  0  0  0  0  0  0  0  0
   -4.8275    2.5784   -3.2855 H   0  0  0  0  0  0  0  0  0  0  0  0
   -5.5232    1.3875   -4.4473 H   0  0  0  0  0  0  0  0  0  0  0  0
   -6.5965   -1.0920    0.4527 H   0  0  0  0  0  0  0  0  0  0  0  0
   -5.5174   -0.1728   -3.6862 H   0  0  0  0  0  0  0  0  0  0  0  0
   -3.5603   -1.3963    2.2312 H   0  0  0  0  0  0  0  0  0  0  0  0
   -0.9703   -0.2521    2.5617 H   0  0  0  0  0  0  0  0  0  0  0  0
    1.9196    0.7207   -0.9502 H   0  0  0  0  0  0  0  0  0  0  0  0
    1.1999    0.2959   -2.5017 H   0  0  0  0  0  0  0  0  0  0  0  0
    1.0753    1.9892   -1.9231 H   0  0  0  0  0  0  0  0  0  0  0  0
    2.6012    2.6155    2.2826 H   0  0  0  0  0  0  0  0  0  0  0  0
   -0.3800    2.8096    0.3368 H   0  0  0  0  0  0  0  0  0  0  0  0
    0.5337    3.6196    1.6068 H   0  0  0  0  0  0  0  0  0  0  0  0
    1.3402    3.2809    0.0409 H   0  0  0  0  0  0  0  0  0  0  0  0
   -0.3074   -1.8089    0.9004 H   0  0  0  0  0  0  0  0  0  0  0  0
    5.5275   -0.9644    5.6543 H   0  0  0  0  0  0  0  0  0  0  0  0
    3.6361   -3.1380    5.3812 H   0  0  0  0  0  0  0  0  0  0  0  0
    4.4969    2.5994    2.6400 H   0  0  0  0  0  0  0  0  0  0  0  0
    4.5403    3.9358    4.7665 H   0  0  0  0  0  0  0  0  0  0  0  0
    2.9579    3.0983    4.6463 H   0  0  0  0  0  0  0  0  0  0  0  0
    4.2284    2.4553    5.7399 H   0  0  0  0  0  0  0  0  0  0  0  0
    6.5965    3.0028    3.4085 H   0  0  0  0  0  0  0  0  0  0  0  0
    6.5744    1.2641    2.9795 H   0  0  0  0  0  0  0  0  0  0  0  0
    6.5472    1.8223    4.7068 H   0  0  0  0  0  0  0  0  0  0  0  0
    1.1250   -3.1865    2.9334 H   0  0  0  0  0  0  0  0  0  0  0  0
  2  1  2  0      
  1  5  1  0      
  1 16  1  0      
  3  2  1  0      
  2 14  1  0      
  3  4  2  0      
  3 15  1  0      
  6  4  1  0      
  4 11  1  0      
  5  6  1  0      
  5  7  2  0      
  8  6  2  0      
  7 10  1  0      
  7 18  1  0      
  9  8  1  0      
  8 39  1  0      
 10  9  2  0      
  9 19  1  0      
 10 20  1  0      
 11 12  1  0      
 11 13  1  0      
 11 40  1  0      
 12 41  1  0      
 12 42  1  0      
 12 43  1  0      
 13 44  1  0      
 13 45  1  0      
 13 46  1  0      
 14 47  1  0      
 15 48  1  0      
 16 17  2  0      
 16 49  1  0      
 18 50  1  0      
 19 51  1  0      
 19 52  1  0      
 19 53  1  0      
 20 22  1  0      
 20 23  2  0      
 22 21  2  0      
 21 26  1  0      
 21 54  1  0      
 22 24  1  0      
 23 25  1  0      
 27 23  1  0      
 24 55  1  0      
 24 56  1  0      
 24 57  1  0      
 25 58  1  0      
 26 27  1  0      
 26 28  2  0      
 29 27  2  0      
 28 31  1  0      
 28 34  1  0      
 30 29  1  0      
 29 37  1  0      
 31 30  2  0      
 30 33  1  0      
 31 32  1  0      
 32 59  1  0      
 33 60  1  0      
 34 35  1  0      
 34 36  1  0      
 34 61  1  0      
 35 62  1  0      
 35 63  1  0      
 35 64  1  0      
 36 65  1  0      
 36 66  1  0      
 36 67  1  0      
 37 38  2  0      
 37 68  1  0      
M  END
