
  Chem3D Core 15.003181610023D

103105  0  0  0  0  0  0  0  0999 V2000
    2.8295    3.9560    1.6008 C   0  0  0  0  0  0  0  0  0  0  0  0
    1.6194    3.4976    2.1561 O   0  0  0  0  0  0  0  0  0  0  0  0
    1.6869    2.5663    3.1417 C   0  0  0  0  0  0  0  0  0  0  0  0
    2.7393    2.1925    3.6040 O   0  0  0  0  0  0  0  0  0  0  0  0
    0.4974    2.0360    3.5596 N   0  0  0  0  0  0  0  0  0  0  0  0
    0.4262    0.9655    4.5703 C   0  0  0  0  0  0  0  0  0  0  0  0
   -0.9191    0.9637    5.3409 C   0  0  0  0  0  0  0  0  0  0  0  0
   -0.9198   -0.0972    6.4635 C   0  0  0  0  0  0  0  0  0  0  0  0
   -1.1376    2.3501    5.9857 C   0  0  0  0  0  0  0  0  0  0  0  0
   -2.0950    0.6585    4.3983 C   0  0  0  0  0  0  0  0  0  0  0  0
    0.8035   -0.3775    3.9449 C   0  0  0  0  0  0  0  0  0  0  0  0
    1.2393   -1.2961    4.5957 O   0  0  0  0  0  0  0  0  0  0  0  0
    0.6193   -0.4356    2.5898 N   0  0  0  0  0  0  0  0  0  0  0  0
    1.0596   -1.5656    1.7560 C   0  0  0  0  0  0  0  0  0  0  0  0
   -0.1101   -2.5345    1.5017 C   0  0  0  0  0  0  0  0  0  0  0  0
   -0.6939   -3.1311    2.7654 C   0  0  0  0  0  0  0  0  0  0  0  0
    0.0310   -3.9716    3.5255 C   0  0  0  0  0  0  0  0  0  0  0  0
   -1.9541   -2.8549    3.1467 C   0  0  0  0  0  0  0  0  0  0  0  0
   -2.4682   -3.3776    4.2706 C   0  0  0  0  0  0  0  0  0  0  0  0
   -1.7269   -4.1993    5.0282 C   0  0  0  0  0  0  0  0  0  0  0  0
   -0.4755   -4.4997    4.6503 C   0  0  0  0  0  0  0  0  0  0  0  0
    1.7225   -0.9489    0.5050 C   0  0  0  0  0  0  0  0  0  0  0  0
    3.0918   -0.7530    0.7772 O   0  0  0  0  0  0  0  0  0  0  0  0
    1.5948   -1.7069   -0.8191 C   0  0  0  0  0  0  0  0  0  0  0  0
    0.2409   -1.6846   -1.3578 N   0  0  0  0  0  0  0  0  0  0  0  0
   -0.1141   -0.4838   -2.1040 C   0  0  0  0  0  0  0  0  0  0  0  0
   -0.4587    0.6634   -1.1746 C   0  0  0  0  0  0  0  0  0  0  0  0
   -0.1304    2.8490   -0.4076 C   0  0  0  0  0  0  0  0  0  0  0  0
   -1.0781    2.7456    0.5483 C   0  0  0  0  0  0  0  0  0  0  0  0
   -1.7031    1.5488    0.5985 C   0  0  0  0  0  0  0  0  0  0  0  0
   -1.4158    0.5430   -0.2419 C   0  0  0  0  0  0  0  0  0  0  0  0
    0.1780    1.8427   -1.2412 C   0  0  0  0  0  0  0  0  0  0  0  0
   -1.4042    3.7532    1.4002 C   0  0  0  0  0  0  0  0  0  0  0  0
   -1.1786    5.9299    2.2635 C   0  0  0  0  0  0  0  0  0  0  0  0
   -2.1238    5.6470    3.1669 C   0  0  0  0  0  0  0  0  0  0  0  0
   -2.6521    4.4184    3.1114 C   0  0  0  0  0  0  0  0  0  0  0  0
   -0.8304    4.9767    1.3848 C   0  0  0  0  0  0  0  0  0  0  0  0
   -2.3047    3.5390    2.2723 N   0  0  0  0  0  0  0  0  0  0  0  0
   -0.0940   -2.8435   -1.9744 N   0  0  0  0  0  0  0  0  0  0  0  0
    0.3544   -3.2882   -3.1923 C   0  0  0  0  0  0  0  0  0  0  0  0
    1.1667   -2.6678   -3.8326 O   0  0  0  0  0  0  0  0  0  0  0  0
   -0.2502   -4.6263   -3.6435 C   0  0  0  0  0  0  0  0  0  0  0  0
   -1.2758   -5.4288   -1.5033 C   0  0  0  0  0  0  0  0  0  0  0  0
   -0.6629   -4.7137   -5.1411 C   0  0  0  0  0  0  0  0  0  0  0  0
    0.5433   -4.6234   -6.1030 C   0  0  0  0  0  0  0  0  0  0  0  0
   -1.3393   -6.0806   -5.4087 C   0  0  0  0  0  0  0  0  0  0  0  0
   -1.6635   -3.5898   -5.4790 C   0  0  0  0  0  0  0  0  0  0  0  0
   -1.3946   -5.0253   -2.8027 N   0  0  0  0  0  0  0  0  0  0  0  0
   -0.2023   -5.4127   -0.9501 O   0  0  0  0  0  0  0  0  0  0  0  0
   -2.4305   -5.7585   -0.8669 O   0  0  0  0  0  0  0  0  0  0  0  0
   -2.3671   -5.9742    0.5238 C   0  0  0  0  0  0  0  0  0  0  0  0
    2.5836    4.6847    0.7965 H   0  0  0  0  0  0  0  0  0  0  0  0
    3.4357    4.4749    2.3765 H   0  0  0  0  0  0  0  0  0  0  0  0
    3.3894    3.1056    1.1508 H   0  0  0  0  0  0  0  0  0  0  0  0
   -0.3406    2.3558    3.0682 H   0  0  0  0  0  0  0  0  0  0  0  0
    1.2073    1.1643    5.3450 H   0  0  0  0  0  0  0  0  0  0  0  0
   -1.8448   -0.0328    7.0799 H   0  0  0  0  0  0  0  0  0  0  0  0
   -0.8829   -1.1329    6.0588 H   0  0  0  0  0  0  0  0  0  0  0  0
   -0.0538    0.0347    7.1505 H   0  0  0  0  0  0  0  0  0  0  0  0
   -2.1012    2.3939    6.5416 H   0  0  0  0  0  0  0  0  0  0  0  0
   -1.1637    3.1605    5.2239 H   0  0  0  0  0  0  0  0  0  0  0  0
   -0.3243    2.5949    6.7057 H   0  0  0  0  0  0  0  0  0  0  0  0
   -2.1822    1.4278    3.6062 H   0  0  0  0  0  0  0  0  0  0  0  0
   -1.9669   -0.3212    3.8929 H   0  0  0  0  0  0  0  0  0  0  0  0
   -3.0655    0.6329    4.9428 H   0  0  0  0  0  0  0  0  0  0  0  0
    0.1276    0.3317    2.1226 H   0  0  0  0  0  0  0  0  0  0  0  0
    1.8562   -2.1488    2.2782 H   0  0  0  0  0  0  0  0  0  0  0  0
   -0.9157   -2.0049    0.9506 H   0  0  0  0  0  0  0  0  0  0  0  0
    0.2203   -3.3871    0.8649 H   0  0  0  0  0  0  0  0  0  0  0  0
    1.0600   -4.2319    3.2278 H   0  0  0  0  0  0  0  0  0  0  0  0
   -2.5832   -2.1867    2.5357 H   0  0  0  0  0  0  0  0  0  0  0  0
   -3.5005   -3.1322    4.5714 H   0  0  0  0  0  0  0  0  0  0  0  0
   -2.1460   -4.6304    5.9525 H   0  0  0  0  0  0  0  0  0  0  0  0
    0.1367   -5.1809    5.2646 H   0  0  0  0  0  0  0  0  0  0  0  0
    1.3316    0.0811    0.3557 H   0  0  0  0  0  0  0  0  0  0  0  0
    3.5005   -0.2623    0.0605 H   0  0  0  0  0  0  0  0  0  0  0  0
    2.3099   -1.2883   -1.5659 H   0  0  0  0  0  0  0  0  0  0  0  0
    1.9350   -2.7538   -0.6334 H   0  0  0  0  0  0  0  0  0  0  0  0
    0.6885   -0.1994   -2.8210 H   0  0  0  0  0  0  0  0  0  0  0  0
   -1.0281   -0.6685   -2.7191 H   0  0  0  0  0  0  0  0  0  0  0  0
    0.4576    3.7655   -0.5631 H   0  0  0  0  0  0  0  0  0  0  0  0
   -2.5084    1.3328    1.3191 H   0  0  0  0  0  0  0  0  0  0  0  0
   -1.9804   -0.4007   -0.1669 H   0  0  0  0  0  0  0  0  0  0  0  0
    0.9716    1.9895   -1.9931 H   0  0  0  0  0  0  0  0  0  0  0  0
   -0.7004    6.9232    2.2475 H   0  0  0  0  0  0  0  0  0  0  0  0
   -2.4511    6.3859    3.9151 H   0  0  0  0  0  0  0  0  0  0  0  0
   -3.4366    4.1247    3.8296 H   0  0  0  0  0  0  0  0  0  0  0  0
   -0.0492    5.2688    0.6681 H   0  0  0  0  0  0  0  0  0  0  0  0
   -0.7032   -3.4680   -1.4637 H   0  0  0  0  0  0  0  0  0  0  0  0
    0.5636   -5.3770   -3.4898 H   0  0  0  0  0  0  0  0  0  0  0  0
    0.2432   -4.8522   -7.1505 H   0  0  0  0  0  0  0  0  0  0  0  0
    0.9932   -3.6093   -6.1438 H   0  0  0  0  0  0  0  0  0  0  0  0
    1.3426   -5.3458   -5.8222 H   0  0  0  0  0  0  0  0  0  0  0  0
   -1.6176   -6.1979   -6.4804 H   0  0  0  0  0  0  0  0  0  0  0  0
   -2.2800   -6.2108   -4.8294 H   0  0  0  0  0  0  0  0  0  0  0  0
   -0.6603   -6.9232   -5.1455 H   0  0  0  0  0  0  0  0  0  0  0  0
   -2.5691   -3.6408   -4.8339 H   0  0  0  0  0  0  0  0  0  0  0  0
   -1.2119   -2.5821   -5.3401 H   0  0  0  0  0  0  0  0  0  0  0  0
   -2.0033   -3.6564   -6.5373 H   0  0  0  0  0  0  0  0  0  0  0  0
   -2.3399   -4.9847   -3.1800 H   0  0  0  0  0  0  0  0  0  0  0  0
   -3.3977   -6.1862    0.8862 H   0  0  0  0  0  0  0  0  0  0  0  0
   -1.7214   -6.8526    0.7477 H   0  0  0  0  0  0  0  0  0  0  0  0
   -1.9919   -5.0607    1.0363 H   0  0  0  0  0  0  0  0  0  0  0  0
  1  2  1  0      
  1 52  1  0      
  1 53  1  0      
  1 54  1  0      
  2  3  1  0      
  3  4  2  0      
  3  5  1  0      
  5  6  1  0      
  5 55  1  0      
  6  7  1  0      
  6 11  1  0      
  6 56  1  0      
  7  8  1  0      
  7  9  1  0      
  7 10  1  0      
  8 57  1  0      
  8 58  1  0      
  8 59  1  0      
  9 60  1  0      
  9 61  1  0      
  9 62  1  0      
 10 63  1  0      
 10 64  1  0      
 10 65  1  0      
 11 12  2  0      
 11 13  1  0      
 13 14  1  0      
 13 66  1  0      
 14 15  1  0      
 14 22  1  0      
 14 67  1  0      
 15 16  1  0      
 15 68  1  0      
 15 69  1  0      
 16 17  1  0      
 16 18  2  0      
 17 21  2  0      
 17 70  1  0      
 19 18  1  0      
 18 71  1  0      
 20 19  2  0      
 19 72  1  0      
 21 20  1  0      
 20 73  1  0      
 21 74  1  0      
 22 23  1  0      
 22 24  1  0      
 22 75  1  0      
 23 76  1  0      
 24 25  1  0      
 24 77  1  0      
 24 78  1  0      
 25 26  1  0      
 25 39  1  0      
 26 27  1  0      
 26 79  1  0      
 26 80  1  0      
 27 31  1  0      
 27 32  2  0      
 29 28  2  0      
 28 32  1  0      
 28 81  1  0      
 30 29  1  0      
 29 33  1  0      
 31 30  2  0      
 30 82  1  0      
 31 83  1  0      
 32 84  1  0      
 37 33  1  0      
 33 38  2  0      
 35 34  1  0      
 34 37  2  0      
 34 85  1  0      
 35 36  2  0      
 35 86  1  0      
 38 36  1  0      
 36 87  1  0      
 37 88  1  0      
 39 40  1  0      
 39 89  1  0      
 40 41  2  0      
 40 42  1  0      
 42 44  1  0      
 42 48  1  0      
 42 90  1  0      
 43 48  1  0      
 43 49  2  0      
 43 50  1  0      
 44 45  1  0      
 44 46  1  0      
 44 47  1  0      
 45 91  1  0      
 45 92  1  0      
 45 93  1  0      
 46 94  1  0      
 46 95  1  0      
 46 96  1  0      
 47 97  1  0      
 47 98  1  0      
 47 99  1  0      
 48100  1  0      
 50 51  1  0      
 51101  1  0      
 51102  1  0      
 51103  1  0      
M  END
