
  Chem3D Core 15.011061515383D

  0  0  0     0  0              0 V3000
M  V30 BEGIN CTAB
M  V30 COUNTS 41 41 0 0 0
M  V30 BEGIN ATOM
M  V30 1 O 0.119958 0.562381 -1.621990 0
M  V30 2 O 1.148493 2.329620 -3.345190 0
M  V30 3 O -2.532005 -5.649620 1.367050 0
M  V30 4 N 1.097324 3.614720 0.103265 0
M  V30 5 N -2.415185 -3.468690 1.817850 0
M  V30 6 C 1.660686 3.045030 -1.120425 0
M  V30 7 C 0.561854 2.820740 -2.161510 0
M  V30 8 C 2.029835 3.733360 1.229760 0
M  V30 9 C -0.499145 1.816620 -1.734170 0
M  V30 10 C 3.213835 4.660250 0.912120 0
M  V30 11 C 1.247618 4.271340 2.440110 0
M  V30 12 C -0.644475 -0.541100 -1.333991 0
M  V30 13 C -2.040225 -2.851040 -0.803176 0
M  V30 14 C -0.061689 -1.755240 -1.367330 0
M  V30 15 C -1.958695 -0.525830 -1.033798 0
M  V30 16 C -0.732935 -2.886341 -1.105483 0
M  V30 17 C -2.641855 -1.650760 -0.770635 0
M  V30 18 C -2.798555 -4.118680 -0.482570 0
M  V30 19 C -2.574865 -4.515830 0.965360 0
M  V30 20 H 1.361716 1.402502 -3.197460 0
M  V30 21 H 0.715836 4.568649 -0.117059 0
M  V30 22 H -2.422015 -2.518980 1.468410 0
M  V30 23 H -2.266075 -3.671790 2.795419 0
M  V30 24 H 2.174705 2.080970 -0.898939 0
M  V30 25 H 2.413145 3.747010 -1.549220 0
M  V30 26 H 0.083697 3.797870 -2.411771 0
M  V30 27 H 2.416855 2.716139 1.487920 0
M  V30 28 H -1.291315 1.765340 -2.517661 0
M  V30 29 H -0.944785 2.110660 -0.757284 0
M  V30 30 H 3.835055 4.838180 1.819359 0
M  V30 31 H 3.893255 4.224970 0.145599 0
M  V30 32 H 2.859955 5.649620 0.542690 0
M  V30 33 H 1.893951 4.334290 3.345190 0
M  V30 34 H 0.387818 3.607770 2.689460 0
M  V30 35 H 0.843147 5.288990 2.236020 0
M  V30 36 H 1.011972 -1.822340 -1.614470 0
M  V30 37 H -2.519925 0.420858 -0.987650 0
M  V30 38 H -0.202595 -3.852650 -1.134588 0
M  V30 39 H -3.713315 -1.583200 -0.517797 0
M  V30 40 H -3.893255 -3.984940 -0.641409 0
M  V30 41 H -2.472575 -4.945141 -1.155176 0
M  V30 END ATOM
M  V30 BEGIN BOND
M  V30 1 1 1 9
M  V30 2 1 1 12
M  V30 3 1 2 7
M  V30 4 1 2 20
M  V30 5 2 3 19
M  V30 6 1 4 6
M  V30 7 1 4 8
M  V30 8 1 4 21
M  V30 9 1 5 19
M  V30 10 1 5 22
M  V30 11 1 5 23
M  V30 12 1 6 7
M  V30 13 1 6 24
M  V30 14 1 6 25
M  V30 15 1 7 9
M  V30 16 1 7 26
M  V30 17 1 8 10
M  V30 18 1 8 11
M  V30 19 1 8 27
M  V30 20 1 9 28
M  V30 21 1 9 29
M  V30 22 1 10 30
M  V30 23 1 10 31
M  V30 24 1 10 32
M  V30 25 1 11 33
M  V30 26 1 11 34
M  V30 27 1 11 35
M  V30 28 1 12 14
M  V30 29 2 12 15
M  V30 30 1 16 13
M  V30 31 2 13 17
M  V30 32 1 13 18
M  V30 33 2 14 16
M  V30 34 1 14 36
M  V30 35 1 17 15
M  V30 36 1 15 37
M  V30 37 1 16 38
M  V30 38 1 17 39
M  V30 39 1 18 19
M  V30 40 1 18 40
M  V30 41 1 18 41
M  V30 END BOND
M  V30 END CTAB
M  END
