
  Chem3D Core 15.010021515583D

 76 79  0  0  0  0  0  0  0  0999 V2000
    6.0105   -3.5797    3.3710 O   0  0  0  0  0  0  0  0  0  0  0  0
    5.9353   -4.5853    2.7004 C   0  0  0  0  0  0  0  0  0  0  0  0
    6.8192   -4.9335    1.7404 O   0  0  0  0  0  0  0  0  0  0  0  0
    4.8485   -5.6372    2.8466 C   0  0  0  0  0  0  0  0  0  0  0  0
    3.8628   -5.6653    1.6771 C   0  0  0  0  0  0  0  0  0  0  0  0
    3.0913   -6.4502    1.8588 H   0  0  0  0  0  0  0  0  0  0  0  0
    4.5744   -6.0442    0.5231 O   0  0  0  0  0  0  0  0  0  0  0  0
    3.1845   -4.3160    1.4325 C   0  0  0  0  0  0  0  0  0  0  0  0
    2.0115   -4.4001    0.4500 C   0  0  0  0  0  0  0  0  0  0  0  0
    1.2096   -5.0378    0.8917 H   0  0  0  0  0  0  0  0  0  0  0  0
    2.4389   -5.0471   -0.7246 O   0  0  0  0  0  0  0  0  0  0  0  0
    1.4538   -3.0149    0.1001 C   0  0  0  0  0  0  0  0  0  0  0  0
    0.2652   -3.0485   -0.8865 C   0  0  0  0  0  0  0  0  0  0  0  0
   -0.5980   -1.8269   -0.9344 N   0  0  0  0  0  0  0  0  0  0  0  0
   -1.8276   -1.8411   -0.5827 C   0  0  0  0  0  0  0  0  0  0  0  0
   -2.6514   -2.8902   -0.3398 C   0  0  0  0  0  0  0  0  0  0  0  0
   -2.5378   -4.0801   -0.9671 C   0  0  0  0  0  0  0  0  0  0  0  0
   -3.3610   -5.1125   -0.7247 C   0  0  0  0  0  0  0  0  0  0  0  0
   -4.3500   -4.9960    0.1711 C   0  0  0  0  0  0  0  0  0  0  0  0
   -5.1659   -6.0082    0.4157 F   0  0  0  0  0  0  0  0  0  0  0  0
   -4.4965   -3.8262    0.8067 C   0  0  0  0  0  0  0  0  0  0  0  0
   -3.6658   -2.8040    0.5476 C   0  0  0  0  0  0  0  0  0  0  0  0
   -2.1702   -0.5295   -0.5541 C   0  0  0  0  0  0  0  0  0  0  0  0
   -3.3876    0.0075   -0.3179 C   0  0  0  0  0  0  0  0  0  0  0  0
   -4.5053   -0.5263   -0.8503 C   0  0  0  0  0  0  0  0  0  0  0  0
   -5.7117    0.0328   -0.6673 C   0  0  0  0  0  0  0  0  0  0  0  0
   -5.8312    1.1543    0.0565 C   0  0  0  0  0  0  0  0  0  0  0  0
   -4.7336    1.7081    0.5899 C   0  0  0  0  0  0  0  0  0  0  0  0
   -3.5328    1.1404    0.3989 C   0  0  0  0  0  0  0  0  0  0  0  0
   -1.0668    0.1773   -0.8932 C   0  0  0  0  0  0  0  0  0  0  0  0
   -1.0111    1.5238   -1.0929 C   0  0  0  0  0  0  0  0  0  0  0  0
   -2.1444    2.0376   -1.6545 N   0  0  0  0  0  0  0  0  0  0  0  0
   -2.5246    3.2816   -2.0131 C   0  0  0  0  0  0  0  0  0  0  0  0
   -3.7427    3.3640   -2.5825 C   0  0  0  0  0  0  0  0  0  0  0  0
   -4.2505    4.5394   -2.9831 C   0  0  0  0  0  0  0  0  0  0  0  0
   -3.5414    5.6648   -2.8160 C   0  0  0  0  0  0  0  0  0  0  0  0
   -2.3299    5.6005   -2.2446 C   0  0  0  0  0  0  0  0  0  0  0  0
   -1.8287    4.4202   -1.8454 C   0  0  0  0  0  0  0  0  0  0  0  0
   -0.0126    2.1851   -0.9730 O   0  0  0  0  0  0  0  0  0  0  0  0
   -0.0582   -0.6866   -1.1332 C   0  0  0  0  0  0  0  0  0  0  0  0
    1.3112   -0.3914   -1.7393 C   0  0  0  0  0  0  0  0  0  0  0  0
    1.2426    0.3456   -3.0905 C   0  0  0  0  0  0  0  0  0  0  0  0
    2.3446    0.2263   -0.7816 C   0  0  0  0  0  0  0  0  0  0  0  0
    6.5306   -5.7205    1.2529 H   0  0  0  0  0  0  0  0  0  0  0  0
    5.3316   -6.6348    2.9711 H   0  0  0  0  0  0  0  0  0  0  0  0
    4.2886   -5.4396    3.7912 H   0  0  0  0  0  0  0  0  0  0  0  0
    4.0218   -5.9767   -0.2559 H   0  0  0  0  0  0  0  0  0  0  0  0
    3.9415   -3.5902    1.0531 H   0  0  0  0  0  0  0  0  0  0  0  0
    2.8041   -3.9148    2.4020 H   0  0  0  0  0  0  0  0  0  0  0  0
    1.7499   -5.0318   -1.3904 H   0  0  0  0  0  0  0  0  0  0  0  0
    2.3026   -2.4227   -0.3024 H   0  0  0  0  0  0  0  0  0  0  0  0
    1.1185   -2.5223    1.0449 H   0  0  0  0  0  0  0  0  0  0  0  0
   -0.2865   -3.9116   -0.4590 H   0  0  0  0  0  0  0  0  0  0  0  0
    0.5817   -3.3427   -1.9133 H   0  0  0  0  0  0  0  0  0  0  0  0
   -1.8120   -4.2339   -1.7826 H   0  0  0  0  0  0  0  0  0  0  0  0
   -3.2443   -6.0563   -1.2837 H   0  0  0  0  0  0  0  0  0  0  0  0
   -5.2946   -3.7131    1.5597 H   0  0  0  0  0  0  0  0  0  0  0  0
   -3.8157   -1.9013    1.1621 H   0  0  0  0  0  0  0  0  0  0  0  0
   -4.4580   -1.4122   -1.5060 H   0  0  0  0  0  0  0  0  0  0  0  0
   -6.6057   -0.4171   -1.1310 H   0  0  0  0  0  0  0  0  0  0  0  0
   -6.8192    1.6207    0.2042 H   0  0  0  0  0  0  0  0  0  0  0  0
   -4.8206    2.6298    1.1895 H   0  0  0  0  0  0  0  0  0  0  0  0
   -2.6653    1.6220    0.8821 H   0  0  0  0  0  0  0  0  0  0  0  0
   -2.8827    1.3862   -1.8765 H   0  0  0  0  0  0  0  0  0  0  0  0
   -4.3507    2.4541   -2.7297 H   0  0  0  0  0  0  0  0  0  0  0  0
   -5.2501    4.5817   -3.4473 H   0  0  0  0  0  0  0  0  0  0  0  0
   -3.9529    6.6348   -3.1408 H   0  0  0  0  0  0  0  0  0  0  0  0
   -1.7468    6.5257   -2.0983 H   0  0  0  0  0  0  0  0  0  0  0  0
   -0.8369    4.4384   -1.3723 H   0  0  0  0  0  0  0  0  0  0  0  0
    1.7346   -1.3780   -2.0531 H   0  0  0  0  0  0  0  0  0  0  0  0
    2.2442    0.3748   -3.5786 H   0  0  0  0  0  0  0  0  0  0  0  0
    0.5446   -0.1684   -3.7912 H   0  0  0  0  0  0  0  0  0  0  0  0
    0.9103    1.4007   -3.0092 H   0  0  0  0  0  0  0  0  0  0  0  0
    3.3807    0.0391   -1.1471 H   0  0  0  0  0  0  0  0  0  0  0  0
    2.2666   -0.1983    0.2439 H   0  0  0  0  0  0  0  0  0  0  0  0
    2.2643    1.3279   -0.6854 H   0  0  0  0  0  0  0  0  0  0  0  0
  1  2  2  0      
  2  3  1  0      
  2  4  1  0      
  3 44  1  0      
  4  5  1  0      
  4 45  1  0      
  4 46  1  0      
  5  6  1  0      
  5  7  1  0      
  5  8  1  0      
  7 47  1  0      
  8  9  1  0      
  8 48  1  0      
  8 49  1  0      
  9 10  1  0      
  9 11  1  0      
  9 12  1  0      
 11 50  1  0      
 12 13  1  0      
 12 51  1  0      
 12 52  1  0      
 13 14  1  0      
 13 53  1  0      
 13 54  1  0      
 15 14  1  0      
 40 14  1  0      
 15 16  1  0      
 15 23  2  0      
 16 17  1  0      
 16 22  2  0      
 17 18  2  0      
 17 55  1  0      
 18 19  1  0      
 18 56  1  0      
 19 20  1  0      
 19 21  2  0      
 21 22  1  0      
 21 57  1  0      
 22 58  1  0      
 23 24  1  0      
 23 30  1  0      
 24 25  1  0      
 24 29  2  0      
 25 26  2  0      
 25 59  1  0      
 26 27  1  0      
 26 60  1  0      
 27 28  2  0      
 27 61  1  0      
 28 29  1  0      
 28 62  1  0      
 29 63  1  0      
 30 31  1  0      
 30 40  2  0      
 31 32  1  0      
 31 39  2  0      
 32 33  1  0      
 32 64  1  0      
 33 34  1  0      
 33 38  2  0      
 34 35  2  0      
 34 65  1  0      
 35 36  1  0      
 35 66  1  0      
 36 37  2  0      
 36 67  1  0      
 37 38  1  0      
 37 68  1  0      
 38 69  1  0      
 40 41  1  0      
 41 42  1  0      
 41 43  1  0      
 41 70  1  0      
 42 71  1  0      
 42 72  1  0      
 42 73  1  0      
 43 74  1  0      
 43 75  1  0      
 43 76  1  0      
M  END
