
  Chem3D Core 14.008141513373D

 46 49  0  0  0  0  0  0  0  0999 V2000
   -6.5217   -2.9964    2.2197 C   0  0  0  0  0  0  0  0  0  0  0  0
   -5.9641   -1.6476    2.3253 N   0  0  0  0  0  0  0  0  0  0  0  0
   -5.2944   -1.0459    1.2925 C   0  0  0  0  0  0  0  0  0  0  0  0
   -5.2016   -1.6356    0.2418 O   0  0  0  0  0  0  0  0  0  0  0  0
   -4.8483    0.2261    1.5379 C   0  0  0  0  0  0  0  0  0  0  0  0
   -4.7795    0.6783    2.8099 C   0  0  0  0  0  0  0  0  0  0  0  0
   -4.3411    1.9086    3.1167 C   0  0  0  0  0  0  0  0  0  0  0  0
   -3.9528    2.7402    2.1434 C   0  0  0  0  0  0  0  0  0  0  0  0
   -4.0145    2.3211    0.8731 C   0  0  0  0  0  0  0  0  0  0  0  0
   -4.4500    1.0841    0.5675 C   0  0  0  0  0  0  0  0  0  0  0  0
   -4.4776    0.7711   -1.2386 S   0  0  0  0  0  0  0  0  0  0  0  0
   -2.6856    0.5927   -1.5232 C   0  0  0  0  0  0  0  0  0  0  0  0
   -1.9516   -0.2646   -0.7911 C   0  0  0  0  0  0  0  0  0  0  0  0
   -0.6276   -0.3982   -0.9909 C   0  0  0  0  0  0  0  0  0  0  0  0
   -0.0313    0.3404   -1.9385 C   0  0  0  0  0  0  0  0  0  0  0  0
    1.2200    0.4875   -2.4191 C   0  0  0  0  0  0  0  0  0  0  0  0
    2.4043   -0.0770   -2.1175 C   0  0  0  0  0  0  0  0  0  0  0  0
    2.6847   -1.0085   -1.1889 C   0  0  0  0  0  0  0  0  0  0  0  0
    3.9065   -1.5293   -0.9421 C   0  0  0  0  0  0  0  0  0  0  0  0
    4.0513   -2.4617    0.0229 C   0  0  0  0  0  0  0  0  0  0  0  0
    5.2560   -2.9917    0.2847 C   0  0  0  0  0  0  0  0  0  0  0  0
    6.3011   -2.5680   -0.4378 C   0  0  0  0  0  0  0  0  0  0  0  0
    6.0615   -1.6396   -1.3745 C   0  0  0  0  0  0  0  0  0  0  0  0
    4.9187   -1.1495   -1.6090 N   0  0  0  0  0  0  0  0  0  0  0  0
    1.1652    1.3615   -3.3431 N   0  0  0  0  0  0  0  0  0  0  0  0
    0.0016    1.7501   -3.4598 N   0  0  0  0  0  0  0  0  0  0  0  0
   -0.7878    1.1857   -2.6512 C   0  0  0  0  0  0  0  0  0  0  0  0
   -2.1036    1.3396   -2.4757 C   0  0  0  0  0  0  0  0  0  0  0  0
   -6.9797   -3.2759    3.1949 H   0  0  0  0  0  0  0  0  0  0  0  0
   -7.3144   -3.0334    1.4386 H   0  0  0  0  0  0  0  0  0  0  0  0
   -5.7238   -3.7368    1.9852 H   0  0  0  0  0  0  0  0  0  0  0  0
   -6.1165   -1.1344    3.1904 H   0  0  0  0  0  0  0  0  0  0  0  0
   -5.0511    0.0613    3.6812 H   0  0  0  0  0  0  0  0  0  0  0  0
   -4.2904    2.2380    4.1686 H   0  0  0  0  0  0  0  0  0  0  0  0
   -3.5911    3.7535    2.3848 H   0  0  0  0  0  0  0  0  0  0  0  0
   -3.6992    3.0284    0.0864 H   0  0  0  0  0  0  0  0  0  0  0  0
   -2.4309   -0.8775   -0.0094 H   0  0  0  0  0  0  0  0  0  0  0  0
   -0.0850   -1.1145   -0.3615 H   0  0  0  0  0  0  0  0  0  0  0  0
    3.2505    0.2889   -2.7277 H   0  0  0  0  0  0  0  0  0  0  0  0
    1.8597   -1.3858   -0.5722 H   0  0  0  0  0  0  0  0  0  0  0  0
    3.1917   -2.8123    0.6196 H   0  0  0  0  0  0  0  0  0  0  0  0
    5.3849   -3.7535    1.0708 H   0  0  0  0  0  0  0  0  0  0  0  0
    7.3144   -2.9660   -0.2688 H   0  0  0  0  0  0  0  0  0  0  0  0
    6.8912   -1.2596   -1.9948 H   0  0  0  0  0  0  0  0  0  0  0  0
   -0.2560    2.4726   -4.1686 H   0  0  0  0  0  0  0  0  0  0  0  0
   -2.6714    2.0540   -3.0921 H   0  0  0  0  0  0  0  0  0  0  0  0
  1  2  1  0      
  1 29  1  0      
  1 30  1  0      
  1 31  1  0      
  2  3  1  0      
  2 32  1  0      
  3  4  2  0      
  3  5  1  0      
  5  6  1  0      
  5 10  2  0      
  6  7  2  0      
  6 33  1  0      
  7  8  1  0      
  7 34  1  0      
  8  9  2  0      
  8 35  1  0      
  9 10  1  0      
  9 36  1  0      
 10 11  1  0      
 11 12  1  0      
 12 13  1  0      
 28 12  2  0      
 13 14  2  0      
 13 37  1  0      
 14 15  1  0      
 14 38  1  0      
 16 15  1  0      
 27 15  2  0      
 16 17  1  0      
 16 25  2  0      
 17 18  2  0      
 17 39  1  0      
 18 19  1  0      
 18 40  1  0      
 20 19  1  0      
 19 24  2  0      
 21 20  2  0      
 20 41  1  0      
 22 21  1  0      
 21 42  1  0      
 22 23  2  0      
 22 43  1  0      
 24 23  1  0      
 23 44  1  0      
 25 26  1  0      
 26 27  1  0      
 26 45  1  0      
 27 28  1  0      
 28 46  1  0      
M  END
