
  Chem3D Core 15.008141512583D

 65 69  0  0  0  0  0  0  0  0999 V2000
   -3.5475   -3.8455    4.8123 O   0  0  0  0  0  0  0  0  0  0  0  0
   -3.4322   -2.7522    4.3060 C   0  0  0  0  0  0  0  0  0  0  0  0
   -4.3029   -1.8402    4.2636 N   0  0  0  0  0  0  0  0  0  0  0  0
   -5.6277   -1.9663    4.8819 C   0  0  0  0  0  0  0  0  0  0  0  0
   -3.8895   -0.8205    3.6392 C   0  0  0  0  0  0  0  0  0  0  0  0
   -2.6335   -1.0852    3.2412 C   0  0  0  0  0  0  0  0  0  0  0  0
   -1.9934   -0.2147    2.5805 N   0  0  0  0  0  0  0  0  0  0  0  0
   -2.5168    0.9139    2.3034 C   0  0  0  0  0  0  0  0  0  0  0  0
   -1.9886    1.8934    1.6781 N   0  0  0  0  0  0  0  0  0  0  0  0
   -0.9150    2.2352    1.0791 C   0  0  0  0  0  0  0  0  0  0  0  0
   -0.9473    3.5170    0.6607 C   0  0  0  0  0  0  0  0  0  0  0  0
    0.0824    4.0882    0.0251 C   0  0  0  0  0  0  0  0  0  0  0  0
    1.2156    3.4128   -0.2206 C   0  0  0  0  0  0  0  0  0  0  0  0
    2.2274    4.0481   -0.9017 O   0  0  0  0  0  0  0  0  0  0  0  0
    3.1764    3.3035   -1.6114 C   0  0  0  0  0  0  0  0  0  0  0  0
    2.5441    2.5573   -2.7876 C   0  0  0  0  0  0  0  0  0  0  0  0
    3.6261    1.8615   -3.6289 C   0  0  0  0  0  0  0  0  0  0  0  0
    4.6145    2.8085   -4.1261 N   0  0  0  0  0  0  0  0  0  0  0  0
    5.6058    2.1388   -4.9552 C   0  0  0  0  0  0  0  0  0  0  0  0
    5.2519    3.5267   -3.0312 C   0  0  0  0  0  0  0  0  0  0  0  0
    4.2209    4.2728   -2.1702 C   0  0  0  0  0  0  0  0  0  0  0  0
    1.2066    2.1260    0.1764 C   0  0  0  0  0  0  0  0  0  0  0  0
    0.1969    1.5057    0.8284 C   0  0  0  0  0  0  0  0  0  0  0  0
    0.2499    0.1731    1.1550 O   0  0  0  0  0  0  0  0  0  0  0  0
    1.2374   -0.6376    0.5575 C   0  0  0  0  0  0  0  0  0  0  0  0
   -3.7067    1.1911    2.6771 N   0  0  0  0  0  0  0  0  0  0  0  0
   -4.4092    0.3661    3.3261 C   0  0  0  0  0  0  0  0  0  0  0  0
   -2.4372   -2.2573    3.6969 N   0  0  0  0  0  0  0  0  0  0  0  0
   -1.1795   -3.0038    3.5357 C   0  0  0  0  0  0  0  0  0  0  0  0
   -0.9307   -3.5403    2.1215 C   0  0  0  0  0  0  0  0  0  0  0  0
    0.5119   -4.0670    2.2011 C   0  0  0  0  0  0  0  0  0  0  0  0
    1.2138   -3.2274    3.2880 C   0  0  0  0  0  0  0  0  0  0  0  0
    0.1386   -2.2937    3.8733 C   0  0  0  0  0  0  0  0  0  0  0  0
   -5.5894   -2.5598    5.8231 H   0  0  0  0  0  0  0  0  0  0  0  0
   -6.0513   -0.9760    5.1603 H   0  0  0  0  0  0  0  0  0  0  0  0
   -6.3307   -2.4638    4.1754 H   0  0  0  0  0  0  0  0  0  0  0  0
   -2.6760    2.6930    1.6635 H   0  0  0  0  0  0  0  0  0  0  0  0
   -1.8293    4.1619    0.8280 H   0  0  0  0  0  0  0  0  0  0  0  0
    0.0018    5.1395   -0.3013 H   0  0  0  0  0  0  0  0  0  0  0  0
    3.7102    2.6105   -0.9207 H   0  0  0  0  0  0  0  0  0  0  0  0
    1.8074    1.7970   -2.4391 H   0  0  0  0  0  0  0  0  0  0  0  0
    1.9841    3.2776   -3.4306 H   0  0  0  0  0  0  0  0  0  0  0  0
    3.1275    1.3470   -4.4859 H   0  0  0  0  0  0  0  0  0  0  0  0
    4.1148    1.0701   -3.0115 H   0  0  0  0  0  0  0  0  0  0  0  0
    6.3307    2.8720   -5.3778 H   0  0  0  0  0  0  0  0  0  0  0  0
    5.1223    1.6345   -5.8231 H   0  0  0  0  0  0  0  0  0  0  0  0
    6.1784    1.3735   -4.3827 H   0  0  0  0  0  0  0  0  0  0  0  0
    5.9777    4.2732   -3.4357 H   0  0  0  0  0  0  0  0  0  0  0  0
    5.8307    2.8247   -2.3845 H   0  0  0  0  0  0  0  0  0  0  0  0
    3.7180    5.0519   -2.7919 H   0  0  0  0  0  0  0  0  0  0  0  0
    4.7362    4.8035   -1.3339 H   0  0  0  0  0  0  0  0  0  0  0  0
    2.1105    1.5454   -0.0451 H   0  0  0  0  0  0  0  0  0  0  0  0
    1.0101   -1.6940    0.8065 H   0  0  0  0  0  0  0  0  0  0  0  0
    1.2042   -0.5459   -0.5511 H   0  0  0  0  0  0  0  0  0  0  0  0
    2.2421   -0.4069    0.9761 H   0  0  0  0  0  0  0  0  0  0  0  0
   -5.4285    0.6664    3.6115 H   0  0  0  0  0  0  0  0  0  0  0  0
   -1.1998   -3.8927    4.2154 H   0  0  0  0  0  0  0  0  0  0  0  0
   -1.6627   -4.3260    1.8261 H   0  0  0  0  0  0  0  0  0  0  0  0
   -1.0029   -2.7054    1.3869 H   0  0  0  0  0  0  0  0  0  0  0  0
    1.0283   -4.0175    1.2158 H   0  0  0  0  0  0  0  0  0  0  0  0
    0.4940   -5.1395    2.5116 H   0  0  0  0  0  0  0  0  0  0  0  0
    1.6101   -3.8975    4.0878 H   0  0  0  0  0  0  0  0  0  0  0  0
    2.0754   -2.6491    2.8818 H   0  0  0  0  0  0  0  0  0  0  0  0
    0.1985   -1.3072    3.3632 H   0  0  0  0  0  0  0  0  0  0  0  0
    0.2624   -2.1165    4.9657 H   0  0  0  0  0  0  0  0  0  0  0  0
  1  2  2  0      
  2  3  1  0      
 28  2  1  0      
  3  4  1  0      
  3  5  1  0      
  4 34  1  0      
  4 35  1  0      
  4 36  1  0      
  5  6  2  0      
  5 27  1  0      
  7  6  1  0      
 28  6  1  0      
  8  7  2  0      
  8  9  1  0      
 26  8  1  0      
  9 10  1  0      
  9 37  1  0      
 10 11  1  0      
 10 23  2  0      
 11 12  2  0      
 11 38  1  0      
 12 13  1  0      
 12 39  1  0      
 13 14  1  0      
 13 22  2  0      
 14 15  1  0      
 16 15  1  0      
 15 21  1  0      
 15 40  1  0      
 17 16  1  0      
 16 41  1  0      
 16 42  1  0      
 18 17  1  0      
 17 43  1  0      
 17 44  1  0      
 18 19  1  0      
 18 20  1  0      
 19 45  1  0      
 19 46  1  0      
 19 47  1  0      
 21 20  1  0      
 20 48  1  0      
 20 49  1  0      
 21 50  1  0      
 21 51  1  0      
 22 23  1  0      
 22 52  1  0      
 23 24  1  0      
 24 25  1  0      
 25 53  1  0      
 25 54  1  0      
 25 55  1  0      
 27 26  2  0      
 27 56  1  0      
 28 29  1  0      
 29 30  1  0      
 29 33  1  0      
 29 57  1  0      
 30 31  1  0      
 30 58  1  0      
 30 59  1  0      
 31 32  1  0      
 31 60  1  0      
 31 61  1  0      
 32 33  1  0      
 32 62  1  0      
 32 63  1  0      
 33 64  1  0      
 33 65  1  0      
M  END
