
  Chem3D Core 15.002101611093D

 59 62  0  0  0  0  0  0  0  0999 V2000
    1.5903    3.5210    2.9526 O   0  0  0  0  0  0  0  0  0  0  0  0
    1.8537    3.0358    1.8779 C   0  0  0  0  0  0  0  0  0  0  0  0
    1.7017    1.6867    1.7802 N   0  0  0  0  0  0  0  0  0  0  0  0
    2.3237    0.6996    1.1024 C   0  0  0  0  0  0  0  0  0  0  0  0
    3.4822    0.8379    0.4429 C   0  0  0  0  0  0  0  0  0  0  0  0
    4.0217   -0.2187   -0.1775 C   0  0  0  0  0  0  0  0  0  0  0  0
    3.4402   -1.4318   -0.1529 C   0  0  0  0  0  0  0  0  0  0  0  0
    4.1389   -2.5562   -0.8979 C   0  0  0  0  0  0  0  0  0  0  0  0
    2.2816   -1.6035    0.5296 C   0  0  0  0  0  0  0  0  0  0  0  0
    1.7855   -2.7803    0.5267 N   0  0  0  0  0  0  0  0  0  0  0  0
    0.7915   -3.4545    0.9606 C   0  0  0  0  0  0  0  0  0  0  0  0
   -0.2605   -3.0505    1.6972 C   0  0  0  0  0  0  0  0  0  0  0  0
   -1.2489   -3.8825    2.0855 C   0  0  0  0  0  0  0  0  0  0  0  0
   -1.1972   -5.1808    1.7299 C   0  0  0  0  0  0  0  0  0  0  0  0
   -2.0808   -6.0284    2.0518 N   0  0  0  0  0  0  0  0  0  0  0  0
   -3.0705   -5.6600    2.7416 C   0  0  0  0  0  0  0  0  0  0  0  0
   -3.2262   -4.3855    3.1524 N   0  0  0  0  0  0  0  0  0  0  0  0
   -4.3917   -4.0005    3.9505 C   0  0  0  0  0  0  0  0  0  0  0  0
   -2.2988   -3.4275    2.8306 C   0  0  0  0  0  0  0  0  0  0  0  0
   -2.4331   -2.2814    3.1942 O   0  0  0  0  0  0  0  0  0  0  0  0
   -0.1570   -5.6052    0.9935 C   0  0  0  0  0  0  0  0  0  0  0  0
    0.8123   -4.7585    0.6183 C   0  0  0  0  0  0  0  0  0  0  0  0
    1.7665   -0.5237    1.1490 C   0  0  0  0  0  0  0  0  0  0  0  0
    2.3668    3.7792    0.8550 C   0  0  0  0  0  0  0  0  0  0  0  0
    2.9578    4.9627    1.1025 C   0  0  0  0  0  0  0  0  0  0  0  0
    3.4477    5.6982    0.0942 C   0  0  0  0  0  0  0  0  0  0  0  0
    3.3378    5.2727   -1.1726 C   0  0  0  0  0  0  0  0  0  0  0  0
    2.7338    4.1062   -1.4625 C   0  0  0  0  0  0  0  0  0  0  0  0
    2.5426    3.6128   -2.8965 C   0  0  0  0  0  0  0  0  0  0  0  0
    3.4638    4.2791   -3.9372 C   0  0  0  0  0  0  0  0  0  0  0  0
    2.8465    2.1617   -2.9431 C   0  0  0  0  0  0  0  0  0  0  0  0
    3.0697    1.0253   -2.9687 N   0  0  0  0  0  0  0  0  0  0  0  0
    1.0740    3.8273   -3.3095 C   0  0  0  0  0  0  0  0  0  0  0  0
    2.2460    3.3907   -0.4295 C   0  0  0  0  0  0  0  0  0  0  0  0
    0.9895    1.3007    2.3810 H   0  0  0  0  0  0  0  0  0  0  0  0
    4.0289    1.7932    0.4190 H   0  0  0  0  0  0  0  0  0  0  0  0
    4.9774   -0.0724   -0.7085 H   0  0  0  0  0  0  0  0  0  0  0  0
    5.0712   -2.2298   -1.4098 H   0  0  0  0  0  0  0  0  0  0  0  0
    4.4370   -3.3701   -0.1981 H   0  0  0  0  0  0  0  0  0  0  0  0
    3.4803   -2.9723   -1.6942 H   0  0  0  0  0  0  0  0  0  0  0  0
    2.4023   -3.4268   -0.0231 H   0  0  0  0  0  0  0  0  0  0  0  0
   -0.3394   -2.0042    2.0010 H   0  0  0  0  0  0  0  0  0  0  0  0
   -3.8201   -6.4224    3.0039 H   0  0  0  0  0  0  0  0  0  0  0  0
   -4.0717   -3.6022    4.9405 H   0  0  0  0  0  0  0  0  0  0  0  0
   -4.9900   -3.2263    3.4178 H   0  0  0  0  0  0  0  0  0  0  0  0
   -5.0712   -4.8594    4.1483 H   0  0  0  0  0  0  0  0  0  0  0  0
   -0.0878   -6.6636    0.6856 H   0  0  0  0  0  0  0  0  0  0  0  0
    1.6342   -5.1821    0.0131 H   0  0  0  0  0  0  0  0  0  0  0  0
    0.8412   -0.5835    1.7300 H   0  0  0  0  0  0  0  0  0  0  0  0
    3.0718    5.3571    2.1261 H   0  0  0  0  0  0  0  0  0  0  0  0
    3.9379    6.6636    0.3077 H   0  0  0  0  0  0  0  0  0  0  0  0
    3.7421    5.9206   -1.9645 H   0  0  0  0  0  0  0  0  0  0  0  0
    3.3413    3.8099   -4.9405 H   0  0  0  0  0  0  0  0  0  0  0  0
    3.2328    5.3593   -4.0736 H   0  0  0  0  0  0  0  0  0  0  0  0
    4.5375    4.1782   -3.6572 H   0  0  0  0  0  0  0  0  0  0  0  0
    0.3674    3.2876   -2.6391 H   0  0  0  0  0  0  0  0  0  0  0  0
    0.8069    4.9083   -3.2771 H   0  0  0  0  0  0  0  0  0  0  0  0
    0.8856    3.4649   -4.3458 H   0  0  0  0  0  0  0  0  0  0  0  0
    1.6922    2.4695   -0.6703 H   0  0  0  0  0  0  0  0  0  0  0  0
  1  2  2  0      
  2  3  1  0      
  2 24  1  0      
  3  4  1  0      
  3 35  1  0      
  4  5  1  0      
  4 23  2  0      
  5  6  2  0      
  5 36  1  0      
  6  7  1  0      
  6 37  1  0      
  7  8  1  0      
  7  9  2  0      
  8 38  1  0      
  8 39  1  0      
  8 40  1  0      
  9 10  1  0      
  9 23  1  0      
 10 11  1  0      
 10 41  1  0      
 11 12  1  0      
 22 11  2  0      
 12 13  2  0      
 12 42  1  0      
 13 14  1  0      
 13 19  1  0      
 15 14  1  0      
 21 14  2  0      
 16 15  2  0      
 17 16  1  0      
 16 43  1  0      
 17 18  1  0      
 19 17  1  0      
 18 44  1  0      
 18 45  1  0      
 18 46  1  0      
 19 20  2  0      
 21 22  1  0      
 21 47  1  0      
 22 48  1  0      
 23 49  1  0      
 24 25  1  0      
 24 34  2  0      
 25 26  2  0      
 25 50  1  0      
 26 27  1  0      
 26 51  1  0      
 27 28  2  0      
 27 52  1  0      
 28 29  1  0      
 28 34  1  0      
 29 30  1  0      
 29 31  1  0      
 29 33  1  0      
 30 53  1  0      
 30 54  1  0      
 30 55  1  0      
 31 32  3  0      
 33 56  1  0      
 33 57  1  0      
 33 58  1  0      
 34 59  1  0      
M  END
