
  Chem3D Core 15.001271611503D

 51 54  0  0  0  0  0  0  0  0999 V2000
   -6.2905    2.0665    1.4070 C   0  0  0  0  0  0  0  0  0  0  0  0
   -6.2893    0.7383    1.5769 C   0  0  0  0  0  0  0  0  0  0  0  0
   -5.2225    0.0192    1.1973 C   0  0  0  0  0  0  0  0  0  0  0  0
   -4.1388    0.5992    0.6441 C   0  0  0  0  0  0  0  0  0  0  0  0
   -4.1496    1.9412    0.4766 C   0  0  0  0  0  0  0  0  0  0  0  0
   -5.2219    2.6617    0.8581 C   0  0  0  0  0  0  0  0  0  0  0  0
   -3.0806    2.5764   -0.0784 C   0  0  0  0  0  0  0  0  0  0  0  0
   -2.0471    1.7640   -0.4281 N   0  0  0  0  0  0  0  0  0  0  0  0
   -2.0650    0.4254   -0.2525 N   0  0  0  0  0  0  0  0  0  0  0  0
   -3.0713   -0.1360    0.2652 C   0  0  0  0  0  0  0  0  0  0  0  0
   -2.9631   -1.6424    0.4078 C   0  0  0  0  0  0  0  0  0  0  0  0
   -1.6445   -2.2119   -0.0784 C   0  0  0  0  0  0  0  0  0  0  0  0
   -1.5102   -2.6569   -1.3385 C   0  0  0  0  0  0  0  0  0  0  0  0
   -0.3401   -3.1596   -1.7550 C   0  0  0  0  0  0  0  0  0  0  0  0
    0.7199   -3.2036   -0.9328 C   0  0  0  0  0  0  0  0  0  0  0  0
    0.6202   -2.7344    0.3279 C   0  0  0  0  0  0  0  0  0  0  0  0
   -0.5751   -2.2628    0.7361 C   0  0  0  0  0  0  0  0  0  0  0  0
    1.6736   -2.7553    1.1992 C   0  0  0  0  0  0  0  0  0  0  0  0
    2.9633   -2.5394    0.7645 N   0  0  0  0  0  0  0  0  0  0  0  0
    4.1248   -2.8627    1.5891 C   0  0  0  0  0  0  0  0  0  0  0  0
    4.7571   -1.5758    2.1312 C   0  0  0  0  0  0  0  0  0  0  0  0
    5.1820   -0.6621    0.9768 C   0  0  0  0  0  0  0  0  0  0  0  0
    3.9766   -0.4116    0.0657 C   0  0  0  0  0  0  0  0  0  0  0  0
    3.3223   -1.7265   -0.3999 C   0  0  0  0  0  0  0  0  0  0  0  0
    5.6853    0.5235    1.5344 O   0  0  0  0  0  0  0  0  0  0  0  0
    6.3504    1.3564    0.6091 C   0  0  0  0  0  0  0  0  0  0  0  0
    1.4672   -2.8247    2.3913 O   0  0  0  0  0  0  0  0  0  0  0  0
    1.8327   -3.7610   -1.3847 F   0  0  0  0  0  0  0  0  0  0  0  0
   -2.9697    3.7610   -0.2829 O   0  0  0  0  0  0  0  0  0  0  0  0
   -7.1648    2.6633    1.7167 H   0  0  0  0  0  0  0  0  0  0  0  0
   -7.1648    0.2408    2.0274 H   0  0  0  0  0  0  0  0  0  0  0  0
   -5.2795   -1.0690    1.3609 H   0  0  0  0  0  0  0  0  0  0  0  0
   -5.2624    3.7570    0.7351 H   0  0  0  0  0  0  0  0  0  0  0  0
   -1.2513    2.2275   -0.8373 H   0  0  0  0  0  0  0  0  0  0  0  0
   -3.0959   -1.9222    1.4792 H   0  0  0  0  0  0  0  0  0  0  0  0
   -3.7950   -2.1218   -0.1596 H   0  0  0  0  0  0  0  0  0  0  0  0
   -2.3651   -2.6243   -2.0337 H   0  0  0  0  0  0  0  0  0  0  0  0
   -0.2513   -3.5497   -2.7829 H   0  0  0  0  0  0  0  0  0  0  0  0
   -0.7092   -1.8687    1.7574 H   0  0  0  0  0  0  0  0  0  0  0  0
    3.8648   -3.5545    2.4224 H   0  0  0  0  0  0  0  0  0  0  0  0
    4.8694   -3.4175    0.9711 H   0  0  0  0  0  0  0  0  0  0  0  0
    4.0200   -1.0490    2.7829 H   0  0  0  0  0  0  0  0  0  0  0  0
    5.6411   -1.8261    2.7654 H   0  0  0  0  0  0  0  0  0  0  0  0
    5.9935   -1.1737    0.4061 H   0  0  0  0  0  0  0  0  0  0  0  0
    3.2203    0.1978    0.6166 H   0  0  0  0  0  0  0  0  0  0  0  0
    4.2770    0.1681   -0.8385 H   0  0  0  0  0  0  0  0  0  0  0  0
    2.4431   -1.4342   -1.0171 H   0  0  0  0  0  0  0  0  0  0  0  0
    4.0263   -2.2912   -1.0551 H   0  0  0  0  0  0  0  0  0  0  0  0
    6.8032    2.2002    1.1765 H   0  0  0  0  0  0  0  0  0  0  0  0
    7.1648    0.8008    0.0943 H   0  0  0  0  0  0  0  0  0  0  0  0
    5.6339    1.7832   -0.1248 H   0  0  0  0  0  0  0  0  0  0  0  0
  1  2  1  0      
  6  1  2  0      
  1 30  1  0      
  2  3  2  0      
  2 31  1  0      
  3  4  1  0      
  3 32  1  0      
  5  4  2  0      
 10  4  1  0      
  5  6  1  0      
  7  5  1  0      
  6 33  1  0      
  8  7  1  0      
  7 29  2  0      
  9  8  1  0      
  8 34  1  0      
 10  9  2  0      
 10 11  1  0      
 11 12  1  0      
 11 35  1  0      
 11 36  1  0      
 12 13  1  0      
 12 17  2  0      
 13 14  2  0      
 13 37  1  0      
 14 15  1  0      
 14 38  1  0      
 15 16  2  0      
 15 28  1  0      
 16 17  1  0      
 16 18  1  0      
 17 39  1  0      
 18 19  1  0      
 18 27  2  0      
 19 20  1  0      
 19 24  1  0      
 20 21  1  0      
 20 40  1  0      
 20 41  1  0      
 21 22  1  0      
 21 42  1  0      
 21 43  1  0      
 22 23  1  0      
 22 25  1  0      
 22 44  1  0      
 23 24  1  0      
 23 45  1  0      
 23 46  1  0      
 24 47  1  0      
 24 48  1  0      
 25 26  1  0      
 26 49  1  0      
 26 50  1  0      
 26 51  1  0      
M  END
