
  Chem3D Core 15.010151512153D

 67 70  0  0  0  0  0  0  0  0999 V2000
    6.1175    1.9643    0.2594 O   0  0  0  0  0  0  0  0  0  0  0  0
    4.9122    1.8828    0.2339 C   0  0  0  0  0  0  0  0  0  0  0  0
    4.4016    0.7029    0.6826 N   0  0  0  0  0  0  0  0  0  0  0  0
    3.2730    0.0087    0.4537 C   0  0  0  0  0  0  0  0  0  0  0  0
    2.3107    0.2500   -0.3348 N   0  0  0  0  0  0  0  0  0  0  0  0
    1.5085   -0.6789   -0.2207 N   0  0  0  0  0  0  0  0  0  0  0  0
    1.8449   -1.5844    0.6019 C   0  0  0  0  0  0  0  0  0  0  0  0
    1.1218   -2.8456    0.9827 C   0  0  0  0  0  0  0  0  0  0  0  0
   -0.2760   -2.5336    1.5386 C   0  0  0  0  0  0  0  0  0  0  0  0
   -1.1417   -3.7123    1.9474 C   0  0  0  0  0  0  0  0  0  0  0  0
   -0.7167   -4.9860    1.9199 C   0  0  0  0  0  0  0  0  0  0  0  0
   -1.4910   -6.0254    2.2831 C   0  0  0  0  0  0  0  0  0  0  0  0
   -0.9607   -7.2927    2.2197 O   0  0  0  0  0  0  0  0  0  0  0  0
   -1.7606   -8.3864    2.6054 C   0  0  0  0  0  0  0  0  0  0  0  0
   -2.7403   -5.7211    2.6844 C   0  0  0  0  0  0  0  0  0  0  0  0
   -3.2349   -4.4691    2.7389 C   0  0  0  0  0  0  0  0  0  0  0  0
   -4.5307   -4.2932    3.1651 O   0  0  0  0  0  0  0  0  0  0  0  0
   -5.0667   -2.9907    3.1974 C   0  0  0  0  0  0  0  0  0  0  0  0
   -2.4010   -3.4824    2.3591 C   0  0  0  0  0  0  0  0  0  0  0  0
    3.0273   -1.1595    1.0677 C   0  0  0  0  0  0  0  0  0  0  0  0
    4.1358    2.8487   -0.3349 C   0  0  0  0  0  0  0  0  0  0  0  0
    2.8460    3.0282   -0.0112 C   0  0  0  0  0  0  0  0  0  0  0  0
    2.1074    3.9948   -0.5812 C   0  0  0  0  0  0  0  0  0  0  0  0
    2.5813    4.8617   -1.5031 C   0  0  0  0  0  0  0  0  0  0  0  0
    1.8666    5.7826   -2.0399 N   0  0  0  0  0  0  0  0  0  0  0  0
    2.3930    6.7757   -3.0189 C   0  0  0  0  0  0  0  0  0  0  0  0
    2.3225    8.1611   -2.3549 C   0  0  0  0  0  0  0  0  0  0  0  0
    2.5042    8.9350   -3.1459 H   0  0  0  0  0  0  0  0  0  0  0  0
    3.4346    8.3619   -1.3143 C   0  0  0  0  0  0  0  0  0  0  0  0
    0.9800    8.4345   -1.8271 N   0  0  0  0  0  0  0  0  0  0  0  0
    0.3324    7.3889   -1.0254 C   0  0  0  0  0  0  0  0  0  0  0  0
   -0.7513    7.6720   -0.9699 H   0  0  0  0  0  0  0  0  0  0  0  0
    0.8258    7.3474    0.4288 C   0  0  0  0  0  0  0  0  0  0  0  0
    0.4315    6.0164   -1.7116 C   0  0  0  0  0  0  0  0  0  0  0  0
    3.8927    4.6811   -1.7750 C   0  0  0  0  0  0  0  0  0  0  0  0
    4.6505    3.7234   -1.2147 C   0  0  0  0  0  0  0  0  0  0  0  0
    5.0274    0.1689    1.2668 H   0  0  0  0  0  0  0  0  0  0  0  0
    0.6305   -0.6764   -0.7878 H   0  0  0  0  0  0  0  0  0  0  0  0
    1.0456   -3.4793    0.0680 H   0  0  0  0  0  0  0  0  0  0  0  0
    1.7283   -3.3911    1.7431 H   0  0  0  0  0  0  0  0  0  0  0  0
   -0.1598   -1.8725    2.4314 H   0  0  0  0  0  0  0  0  0  0  0  0
   -0.8385   -1.9558    0.7656 H   0  0  0  0  0  0  0  0  0  0  0  0
    0.3072   -5.2191    1.5894 H   0  0  0  0  0  0  0  0  0  0  0  0
   -1.1525   -9.3110    2.4852 H   0  0  0  0  0  0  0  0  0  0  0  0
   -2.0473   -8.2976    3.6771 H   0  0  0  0  0  0  0  0  0  0  0  0
   -2.6503   -8.4686    1.9420 H   0  0  0  0  0  0  0  0  0  0  0  0
   -3.4287   -6.5231    2.9952 H   0  0  0  0  0  0  0  0  0  0  0  0
   -6.1175   -3.0647    3.5572 H   0  0  0  0  0  0  0  0  0  0  0  0
   -4.4995   -2.3560    3.9142 H   0  0  0  0  0  0  0  0  0  0  0  0
   -5.0806   -2.5523    2.1746 H   0  0  0  0  0  0  0  0  0  0  0  0
   -2.7348   -2.4335    2.3761 H   0  0  0  0  0  0  0  0  0  0  0  0
    3.6634   -1.6652    1.8046 H   0  0  0  0  0  0  0  0  0  0  0  0
    2.3673    2.4188    0.7729 H   0  0  0  0  0  0  0  0  0  0  0  0
    1.0762    4.0292   -0.2038 H   0  0  0  0  0  0  0  0  0  0  0  0
    3.4003    6.6006   -3.4410 H   0  0  0  0  0  0  0  0  0  0  0  0
    1.7268    6.7657   -3.9142 H   0  0  0  0  0  0  0  0  0  0  0  0
    4.4306    8.4231   -1.8104 H   0  0  0  0  0  0  0  0  0  0  0  0
    3.2870    9.3056   -0.7414 H   0  0  0  0  0  0  0  0  0  0  0  0
    3.5044    7.5238   -0.5903 H   0  0  0  0  0  0  0  0  0  0  0  0
    1.0261    9.3110   -1.2496 H   0  0  0  0  0  0  0  0  0  0  0  0
    0.1313    6.7490    1.0624 H   0  0  0  0  0  0  0  0  0  0  0  0
    1.8226    6.8709    0.5331 H   0  0  0  0  0  0  0  0  0  0  0  0
    0.8816    8.3702    0.8662 H   0  0  0  0  0  0  0  0  0  0  0  0
   -0.1420    6.0451   -2.6686 H   0  0  0  0  0  0  0  0  0  0  0  0
   -0.0939    5.2456   -1.1172 H   0  0  0  0  0  0  0  0  0  0  0  0
    4.4494    5.3153   -2.4784 H   0  0  0  0  0  0  0  0  0  0  0  0
    5.7114    3.6679   -1.5153 H   0  0  0  0  0  0  0  0  0  0  0  0
  1  2  2  0      
  2  3  1  0      
  2 21  1  0      
  3  4  1  0      
  3 37  1  0      
  4  5  2  0      
  4 20  1  0      
  6  5  1  0      
  7  6  1  0      
  6 38  1  0      
  7  8  1  0      
 20  7  2  0      
  8  9  1  0      
  8 39  1  0      
  8 40  1  0      
  9 10  1  0      
  9 41  1  0      
  9 42  1  0      
 10 11  1  0      
 10 19  2  0      
 11 12  2  0      
 11 43  1  0      
 12 13  1  0      
 12 15  1  0      
 13 14  1  0      
 14 44  1  0      
 14 45  1  0      
 14 46  1  0      
 15 16  2  0      
 15 47  1  0      
 16 17  1  0      
 16 19  1  0      
 17 18  1  0      
 18 48  1  0      
 18 49  1  0      
 18 50  1  0      
 19 51  1  0      
 20 52  1  0      
 21 22  1  0      
 21 36  2  0      
 22 23  2  0      
 22 53  1  0      
 23 24  1  0      
 23 54  1  0      
 24 25  1  0      
 24 35  2  0      
 25 26  1  0      
 25 34  1  0      
 26 27  1  0      
 26 55  1  0      
 26 56  1  0      
 27 28  1  0      
 27 29  1  0      
 27 30  1  0      
 29 57  1  0      
 29 58  1  0      
 29 59  1  0      
 30 31  1  0      
 30 60  1  0      
 31 32  1  0      
 31 33  1  0      
 31 34  1  0      
 33 61  1  0      
 33 62  1  0      
 33 63  1  0      
 34 64  1  0      
 34 65  1  0      
 35 36  1  0      
 35 66  1  0      
 36 67  1  0      
M  END
