
  Chem3D Core 15.010151511063D

 28 30  0  0  0  0  0  0  0  0999 V2000
   -3.6150   -3.0116    0.7957 F   0  0  0  0  0  0  0  0  0  0  0  0
    1.9362   -1.4067    0.4128 O   0  0  0  0  0  0  0  0  0  0  0  0
    0.3689   -0.1390    0.0540 N   0  0  0  0  0  0  0  0  0  0  0  0
    2.3874   -0.2133    0.0850 N   0  0  0  0  0  0  0  0  0  0  0  0
    0.3641    2.4757   -0.6647 N   0  0  0  0  0  0  0  0  0  0  0  0
    0.4312   -6.8025    1.8483 N   0  0  0  0  0  0  0  0  0  0  0  0
    1.3957    6.8025   -1.8483 N   0  0  0  0  0  0  0  0  0  0  0  0
   -0.1292   -2.3394    0.6455 C   0  0  0  0  0  0  0  0  0  0  0  0
    0.7077   -1.3173    0.3788 C   0  0  0  0  0  0  0  0  0  0  0  0
    1.4099    0.5592   -0.1312 C   0  0  0  0  0  0  0  0  0  0  0  0
    0.3454   -3.5567    0.9768 C   0  0  0  0  0  0  0  0  0  0  0  0
   -1.4660   -2.1805    0.5905 C   0  0  0  0  0  0  0  0  0  0  0  0
    1.4584    1.8569   -0.4879 C   0  0  0  0  0  0  0  0  0  0  0  0
   -0.4811   -4.5818    1.2456 C   0  0  0  0  0  0  0  0  0  0  0  0
   -2.3049   -3.1946    0.8564 C   0  0  0  0  0  0  0  0  0  0  0  0
   -1.8093   -4.3973    1.1846 C   0  0  0  0  0  0  0  0  0  0  0  0
    2.6338    2.4941   -0.6562 C   0  0  0  0  0  0  0  0  0  0  0  0
    2.6551    3.7882   -1.0116 C   0  0  0  0  0  0  0  0  0  0  0  0
    1.4851    4.4186   -1.1919 C   0  0  0  0  0  0  0  0  0  0  0  0
    0.3697    3.6962   -1.0001 C   0  0  0  0  0  0  0  0  0  0  0  0
    0.0052   -5.7627    1.5671 C   0  0  0  0  0  0  0  0  0  0  0  0
    1.4381    5.6866   -1.5407 C   0  0  0  0  0  0  0  0  0  0  0  0
    1.4328   -3.7374    1.0339 H   0  0  0  0  0  0  0  0  0  0  0  0
   -1.9153   -1.2089    0.3252 H   0  0  0  0  0  0  0  0  0  0  0  0
   -2.5033   -5.2269    1.4018 H   0  0  0  0  0  0  0  0  0  0  0  0
    3.5971    1.9781   -0.5085 H   0  0  0  0  0  0  0  0  0  0  0  0
    3.6150    4.3133   -1.1500 H   0  0  0  0  0  0  0  0  0  0  0  0
   -0.6237    4.1588   -1.1333 H   0  0  0  0  0  0  0  0  0  0  0  0
  1 15  1  0      
  4  2  1  0      
  9  2  1  0      
  9  3  2  0      
  3 10  1  0      
 10  4  2  0      
 13  5  2  0      
  5 20  1  0      
  6 21  3  0      
  7 22  3  0      
  8  9  1  0      
  8 11  1  0      
  8 12  2  0      
 10 13  1  0      
 11 14  2  0      
 11 23  1  0      
 15 12  1  0      
 12 24  1  0      
 17 13  1  0      
 14 16  1  0      
 14 21  1  0      
 16 15  2  0      
 16 25  1  0      
 18 17  2  0      
 17 26  1  0      
 19 18  1  0      
 18 27  1  0      
 19 20  2  0      
 19 22  1  0      
 20 28  1  0      
M  END
