
  Chem3D Core 15.008171512553D

 65 69  0  0  0  0  0  0  0  0999 V2000
   -4.6800   -4.2351    1.1328 O   0  0  0  0  0  0  0  0  0  0  0  0
   -4.9992   -3.2739    0.1342 C   0  0  0  0  0  0  0  0  0  0  0  0
   -4.1629   -2.0226    0.3162 C   0  0  0  0  0  0  0  0  0  0  0  0
   -2.8304   -2.1179    0.1452 C   0  0  0  0  0  0  0  0  0  0  0  0
   -1.9728   -1.0890    0.3025 C   0  0  0  0  0  0  0  0  0  0  0  0
   -0.6294   -1.1850    0.1285 C   0  0  0  0  0  0  0  0  0  0  0  0
    0.0933   -0.1595    0.3072 N   0  0  0  0  0  0  0  0  0  0  0  0
    1.3549   -0.1486    0.1698 C   0  0  0  0  0  0  0  0  0  0  0  0
    1.8827    0.9775    0.3911 N   0  0  0  0  0  0  0  0  0  0  0  0
    3.1257    1.1776    0.2982 C   0  0  0  0  0  0  0  0  0  0  0  0
    3.6484    2.3228    0.5227 N   0  0  0  0  0  0  0  0  0  0  0  0
    2.8668    3.5333    0.9111 C   0  0  0  0  0  0  0  0  0  0  0  0
    3.1079    4.2836    0.1138 H   0  0  0  0  0  0  0  0  0  0  0  0
    1.3368    3.5775    1.0522 C   0  0  0  0  0  0  0  0  0  0  0  0
    3.5053    4.0240    2.2194 C   0  0  0  0  0  0  0  0  0  0  0  0
    4.8859    4.2503    2.0698 O   0  0  0  0  0  0  0  0  0  0  0  0
    5.5905    3.0752    1.7584 C   0  0  0  0  0  0  0  0  0  0  0  0
    5.1223    2.5044    0.4215 C   0  0  0  0  0  0  0  0  0  0  0  0
    3.8300    0.1737   -0.0281 N   0  0  0  0  0  0  0  0  0  0  0  0
    3.4523   -1.0194   -0.2768 C   0  0  0  0  0  0  0  0  0  0  0  0
    4.4005   -1.8409   -0.5754 N   0  0  0  0  0  0  0  0  0  0  0  0
    4.2160   -3.2850   -0.8717 C   0  0  0  0  0  0  0  0  0  0  0  0
    3.5188   -3.6895   -0.1053 H   0  0  0  0  0  0  0  0  0  0  0  0
    3.7250   -3.4457   -2.3249 C   0  0  0  0  0  0  0  0  0  0  0  0
    5.4613   -4.1778   -0.6735 C   0  0  0  0  0  0  0  0  0  0  0  0
    6.5850   -3.4842   -0.2004 O   0  0  0  0  0  0  0  0  0  0  0  0
    6.8216   -2.3418   -0.9741 C   0  0  0  0  0  0  0  0  0  0  0  0
    5.7891   -1.2867   -0.5986 C   0  0  0  0  0  0  0  0  0  0  0  0
    2.1085   -1.2112   -0.1793 C   0  0  0  0  0  0  0  0  0  0  0  0
    1.3583   -2.3111   -0.3812 C   0  0  0  0  0  0  0  0  0  0  0  0
    0.0244   -2.3036   -0.2313 C   0  0  0  0  0  0  0  0  0  0  0  0
   -2.5508    0.0721    0.6739 C   0  0  0  0  0  0  0  0  0  0  0  0
   -3.8757    0.1847    0.8469 C   0  0  0  0  0  0  0  0  0  0  0  0
   -4.7230   -0.8348    0.6243 C   0  0  0  0  0  0  0  0  0  0  0  0
   -6.0662   -0.6848    0.8608 O   0  0  0  0  0  0  0  0  0  0  0  0
   -6.7753   -0.1529   -0.2357 C   0  0  0  0  0  0  0  0  0  0  0  0
   -5.2955   -4.9682    1.0736 H   0  0  0  0  0  0  0  0  0  0  0  0
   -4.7969   -3.7382   -0.8567 H   0  0  0  0  0  0  0  0  0  0  0  0
   -6.0939   -3.1008    0.1964 H   0  0  0  0  0  0  0  0  0  0  0  0
   -2.4747   -3.1214   -0.1292 H   0  0  0  0  0  0  0  0  0  0  0  0
    0.8199    3.3177    0.1003 H   0  0  0  0  0  0  0  0  0  0  0  0
    0.9729    2.9189    1.8731 H   0  0  0  0  0  0  0  0  0  0  0  0
    0.9931    4.6066    1.3060 H   0  0  0  0  0  0  0  0  0  0  0  0
    3.0568    4.9960    2.5310 H   0  0  0  0  0  0  0  0  0  0  0  0
    3.3337    3.2968    3.0455 H   0  0  0  0  0  0  0  0  0  0  0  0
    6.6732    3.3376    1.7083 H   0  0  0  0  0  0  0  0  0  0  0  0
    5.4603    2.3356    2.5817 H   0  0  0  0  0  0  0  0  0  0  0  0
    5.3383    3.2272   -0.4002 H   0  0  0  0  0  0  0  0  0  0  0  0
    5.7187    1.5936    0.2012 H   0  0  0  0  0  0  0  0  0  0  0  0
    2.8564   -2.7988   -2.5739 H   0  0  0  0  0  0  0  0  0  0  0  0
    4.5243   -3.1587   -3.0455 H   0  0  0  0  0  0  0  0  0  0  0  0
    3.4311   -4.4995   -2.5352 H   0  0  0  0  0  0  0  0  0  0  0  0
    5.2628   -4.9960    0.0588 H   0  0  0  0  0  0  0  0  0  0  0  0
    5.7533   -4.6976   -1.6148 H   0  0  0  0  0  0  0  0  0  0  0  0
    7.8513   -1.9786   -0.7474 H   0  0  0  0  0  0  0  0  0  0  0  0
    6.7910   -2.5994   -2.0570 H   0  0  0  0  0  0  0  0  0  0  0  0
    6.0652   -0.9141    0.4192 H   0  0  0  0  0  0  0  0  0  0  0  0
    5.8816   -0.4603   -1.3451 H   0  0  0  0  0  0  0  0  0  0  0  0
    1.7478   -3.2848   -0.6897 H   0  0  0  0  0  0  0  0  0  0  0  0
   -0.4915   -3.2567   -0.4231 H   0  0  0  0  0  0  0  0  0  0  0  0
   -1.9659    0.9874    0.8659 H   0  0  0  0  0  0  0  0  0  0  0  0
   -4.2889    1.1546    1.1749 H   0  0  0  0  0  0  0  0  0  0  0  0
   -7.8513   -0.0935    0.0422 H   0  0  0  0  0  0  0  0  0  0  0  0
   -6.4041    0.8691   -0.4729 H   0  0  0  0  0  0  0  0  0  0  0  0
   -6.6632   -0.8187   -1.1207 H   0  0  0  0  0  0  0  0  0  0  0  0
  1  2  1  0      
  1 37  1  0      
  2  3  1  0      
  2 38  1  0      
  2 39  1  0      
  3  4  1  0      
  3 34  2  0      
  4  5  2  0      
  4 40  1  0      
  5  6  1  0      
  5 32  1  0      
  7  6  2  0      
  6 31  1  0      
  8  7  1  0      
  9  8  1  0      
  8 29  2  0      
 10  9  2  0      
 10 11  1  0      
 19 10  1  0      
 11 12  1  0      
 11 18  1  0      
 12 13  1  0      
 12 14  1  0      
 12 15  1  0      
 14 41  1  0      
 14 42  1  0      
 14 43  1  0      
 15 16  1  0      
 15 44  1  0      
 15 45  1  0      
 16 17  1  0      
 17 18  1  0      
 17 46  1  0      
 17 47  1  0      
 18 48  1  0      
 18 49  1  0      
 20 19  2  0      
 20 21  1  0      
 20 29  1  0      
 21 22  1  0      
 21 28  1  0      
 22 23  1  0      
 22 24  1  0      
 22 25  1  0      
 24 50  1  0      
 24 51  1  0      
 24 52  1  0      
 25 26  1  0      
 25 53  1  0      
 25 54  1  0      
 26 27  1  0      
 27 28  1  0      
 27 55  1  0      
 27 56  1  0      
 28 57  1  0      
 28 58  1  0      
 30 29  1  0      
 31 30  2  0      
 30 59  1  0      
 31 60  1  0      
 32 33  2  0      
 32 61  1  0      
 33 34  1  0      
 33 62  1  0      
 34 35  1  0      
 35 36  1  0      
 36 63  1  0      
 36 64  1  0      
 36 65  1  0      
M  END
