
  Chem3D Core 15.010011511293D

102103  0  0  0  0  0  0  0  0999 V2000
   -3.9380    0.9669    0.5184 C   0  0  0  0  0  0  0  0  0  0  0  0
   -3.1326    1.2180    1.8197 C   0  0  0  0  0  0  0  0  0  0  0  0
   -2.2234    0.0733    2.3219 C   0  0  0  0  0  0  0  0  0  0  0  0
   -0.9550   -0.1337    1.4750 C   0  0  0  0  0  0  0  0  0  0  0  0
   -0.2674   -1.5018    1.6394 C   0  0  0  0  0  0  0  0  0  0  0  0
    0.9693   -1.5330    0.7550 C   0  0  0  0  0  0  0  0  0  0  0  0
    2.2115   -1.7766    1.2068 C   0  0  0  0  0  0  0  0  0  0  0  0
    3.3004   -1.7392    0.4182 C   0  0  0  0  0  0  0  0  0  0  0  0
    4.5633   -1.9902    0.8168 C   0  0  0  0  0  0  0  0  0  0  0  0
    5.7198   -1.8673   -0.1644 C   0  0  0  0  0  0  0  0  0  0  0  0
    6.0766   -0.4176   -0.5683 C   0  0  0  0  0  0  0  0  0  0  0  0
    6.8112    0.4229    0.4998 C   0  0  0  0  0  0  0  0  0  0  0  0
    6.2746    1.8555    0.6938 C   0  0  0  0  0  0  0  0  0  0  0  0
    4.7604    1.9330    0.7868 C   0  0  0  0  0  0  0  0  0  0  0  0
    3.9256    1.7369    1.8287 C   0  0  0  0  0  0  0  0  0  0  0  0
    2.5824    1.6740    1.6732 C   0  0  0  0  0  0  0  0  0  0  0  0
    1.7700    2.0478    0.6544 C   0  0  0  0  0  0  0  0  0  0  0  0
    0.4509    1.6714    0.7452 C   0  0  0  0  0  0  0  0  0  0  0  0
    0.0037    0.8505    1.7569 O   0  0  0  0  0  0  0  0  0  0  0  0
   -0.3318    1.9588   -0.1380 O   0  0  0  0  0  0  0  0  0  0  0  0
    2.2555    2.7791   -0.4073 O   0  0  0  0  0  0  0  0  0  0  0  0
    1.4974    3.8344   -0.9550 C   0  0  0  0  0  0  0  0  0  0  0  0
    4.4630    1.4218    3.2146 C   0  0  0  0  0  0  0  0  0  0  0  0
    7.0323    2.6744    1.7514 C   0  0  0  0  0  0  0  0  0  0  0  0
    6.8463   -0.2574    1.7261 O   0  0  0  0  0  0  0  0  0  0  0  0
    6.8994   -0.4267   -1.8733 C   0  0  0  0  0  0  0  0  0  0  0  0
    4.8917   -2.4254    2.2273 C   0  0  0  0  0  0  0  0  0  0  0  0
   -1.1735   -2.5273    1.2938 O   0  0  0  0  0  0  0  0  0  0  0  0
   -0.6575   -3.8208    1.5183 C   0  0  0  0  0  0  0  0  0  0  0  0
   -1.8998    0.2633    3.8171 C   0  0  0  0  0  0  0  0  0  0  0  0
   -2.3415    2.3794    1.6833 O   0  0  0  0  0  0  0  0  0  0  0  0
   -4.4970    2.3120    0.0067 C   0  0  0  0  0  0  0  0  0  0  0  0
   -6.4368    0.1224    0.1291 C   0  0  0  0  0  0  0  0  0  0  0  0
   -4.9987   -0.1670    0.5760 C   0  0  0  0  0  0  0  0  0  0  0  0
   -4.4751   -1.3881    0.0872 O   0  0  0  0  0  0  0  0  0  0  0  0
   -4.7599   -1.7595   -1.2387 C   0  0  0  0  0  0  0  0  0  0  0  0
   -6.2619   -1.7139   -1.5369 C   0  0  0  0  0  0  0  0  0  0  0  0
   -6.8187   -0.3214   -1.2743 C   0  0  0  0  0  0  0  0  0  0  0  0
   -3.8032   -1.1196   -2.2664 C   0  0  0  0  0  0  0  0  0  0  0  0
   -2.3544   -1.5963   -2.0411 C   0  0  0  0  0  0  0  0  0  0  0  0
   -4.1644   -1.4304   -3.7325 C   0  0  0  0  0  0  0  0  0  0  0  0
   -7.0195   -2.7897   -0.7308 C   0  0  0  0  0  0  0  0  0  0  0  0
   -6.3448    0.5935   -2.2291 O   0  0  0  0  0  0  0  0  0  0  0  0
   -5.1353   -0.5985    1.9275 O   0  0  0  0  0  0  0  0  0  0  0  0
   -3.1762    0.6828   -0.2448 H   0  0  0  0  0  0  0  0  0  0  0  0
   -3.8710    1.4785    2.6156 H   0  0  0  0  0  0  0  0  0  0  0  0
   -2.8078   -0.8740    2.2550 H   0  0  0  0  0  0  0  0  0  0  0  0
   -1.2539   -0.0955    0.4070 H   0  0  0  0  0  0  0  0  0  0  0  0
    0.0188   -1.6306    2.7082 H   0  0  0  0  0  0  0  0  0  0  0  0
    0.8036   -1.3124   -0.3135 H   0  0  0  0  0  0  0  0  0  0  0  0
    2.3147   -2.0014    2.2798 H   0  0  0  0  0  0  0  0  0  0  0  0
    3.1587   -1.4709   -0.6432 H   0  0  0  0  0  0  0  0  0  0  0  0
    5.4053   -2.4279   -1.0775 H   0  0  0  0  0  0  0  0  0  0  0  0
    6.6272   -2.4035    0.1918 H   0  0  0  0  0  0  0  0  0  0  0  0
    5.1098    0.0711   -0.8351 H   0  0  0  0  0  0  0  0  0  0  0  0
    7.8908    0.5005    0.2228 H   0  0  0  0  0  0  0  0  0  0  0  0
    6.5227    2.3853   -0.2672 H   0  0  0  0  0  0  0  0  0  0  0  0
    4.3311    2.0750   -0.2155 H   0  0  0  0  0  0  0  0  0  0  0  0
    2.0949    1.2306    2.5570 H   0  0  0  0  0  0  0  0  0  0  0  0
    2.2088    4.5542   -1.4194 H   0  0  0  0  0  0  0  0  0  0  0  0
    0.8396    3.4696   -1.7734 H   0  0  0  0  0  0  0  0  0  0  0  0
    0.9327    4.3694   -0.1594 H   0  0  0  0  0  0  0  0  0  0  0  0
    5.3650    0.7837    3.2106 H   0  0  0  0  0  0  0  0  0  0  0  0
    4.7086    2.3753    3.7354 H   0  0  0  0  0  0  0  0  0  0  0  0
    3.7470    0.8745    3.8665 H   0  0  0  0  0  0  0  0  0  0  0  0
    6.9754    2.2455    2.7728 H   0  0  0  0  0  0  0  0  0  0  0  0
    6.6421    3.7169    1.8030 H   0  0  0  0  0  0  0  0  0  0  0  0
    8.1167    2.7365    1.5021 H   0  0  0  0  0  0  0  0  0  0  0  0
    7.3342    0.2567    2.3718 H   0  0  0  0  0  0  0  0  0  0  0  0
    6.3473   -0.9215   -2.7048 H   0  0  0  0  0  0  0  0  0  0  0  0
    7.8614   -0.9716   -1.7381 H   0  0  0  0  0  0  0  0  0  0  0  0
    7.1329    0.6094   -2.2105 H   0  0  0  0  0  0  0  0  0  0  0  0
    4.2450   -3.2749    2.5423 H   0  0  0  0  0  0  0  0  0  0  0  0
    5.9369   -2.7914    2.3275 H   0  0  0  0  0  0  0  0  0  0  0  0
    4.7501   -1.5875    2.9454 H   0  0  0  0  0  0  0  0  0  0  0  0
   -1.4549   -4.5542    1.2632 H   0  0  0  0  0  0  0  0  0  0  0  0
    0.2190   -4.0127    0.8618 H   0  0  0  0  0  0  0  0  0  0  0  0
   -0.3839   -3.9490    2.5890 H   0  0  0  0  0  0  0  0  0  0  0  0
   -1.2873   -0.5732    4.2203 H   0  0  0  0  0  0  0  0  0  0  0  0
   -2.8301    0.2975    4.4289 H   0  0  0  0  0  0  0  0  0  0  0  0
   -1.3452    1.2095    4.0053 H   0  0  0  0  0  0  0  0  0  0  0  0
   -1.9139    2.3810    0.8228 H   0  0  0  0  0  0  0  0  0  0  0  0
   -3.6941    3.0523   -0.2080 H   0  0  0  0  0  0  0  0  0  0  0  0
   -5.0302    2.2069   -0.9613 H   0  0  0  0  0  0  0  0  0  0  0  0
   -5.1813    2.7784    0.7507 H   0  0  0  0  0  0  0  0  0  0  0  0
   -6.7293    1.1795    0.3031 H   0  0  0  0  0  0  0  0  0  0  0  0
   -7.1465   -0.4269    0.7945 H   0  0  0  0  0  0  0  0  0  0  0  0
   -4.4921   -2.8469   -1.2905 H   0  0  0  0  0  0  0  0  0  0  0  0
   -6.4533   -1.9698   -2.6074 H   0  0  0  0  0  0  0  0  0  0  0  0
   -7.9279   -0.3179   -1.4004 H   0  0  0  0  0  0  0  0  0  0  0  0
   -3.8220   -0.0100   -2.1584 H   0  0  0  0  0  0  0  0  0  0  0  0
   -1.6338   -1.0380   -2.6812 H   0  0  0  0  0  0  0  0  0  0  0  0
   -2.0339   -1.4500   -0.9908 H   0  0  0  0  0  0  0  0  0  0  0  0
   -2.2402   -2.6808   -2.2661 H   0  0  0  0  0  0  0  0  0  0  0  0
   -3.3833   -1.0488   -4.4289 H   0  0  0  0  0  0  0  0  0  0  0  0
   -5.1133   -0.9457   -4.0510 H   0  0  0  0  0  0  0  0  0  0  0  0
   -4.2571   -2.5273   -3.9009 H   0  0  0  0  0  0  0  0  0  0  0  0
   -8.1167   -2.7358   -0.9150 H   0  0  0  0  0  0  0  0  0  0  0  0
   -6.8561   -2.6939    0.3652 H   0  0  0  0  0  0  0  0  0  0  0  0
   -6.6919   -3.8147   -1.0199 H   0  0  0  0  0  0  0  0  0  0  0  0
   -6.6990    0.3727   -3.0935 H   0  0  0  0  0  0  0  0  0  0  0  0
   -4.7333   -1.4681    1.9950 H   0  0  0  0  0  0  0  0  0  0  0  0
  1  2  1  0      
  1 32  1  0      
  1 34  1  0      
  1 45  1  0      
  2  3  1  0      
  2 31  1  0      
  2 46  1  0      
  3  4  1  0      
  3 30  1  0      
  3 47  1  0      
  5  4  1  0      
 19  4  1  0      
  4 48  1  0      
  5  6  1  0      
  5 28  1  0      
  5 49  1  0      
  6  7  2  0      
  6 50  1  0      
  7  8  1  0      
  7 51  1  0      
  8  9  2  0      
  8 52  1  0      
  9 10  1  0      
  9 27  1  0      
 10 11  1  0      
 10 53  1  0      
 10 54  1  0      
 11 12  1  0      
 11 26  1  0      
 11 55  1  0      
 12 13  1  0      
 12 25  1  0      
 12 56  1  0      
 13 14  1  0      
 13 24  1  0      
 13 57  1  0      
 14 15  2  0      
 14 58  1  0      
 15 16  1  0      
 15 23  1  0      
 16 17  2  0      
 16 59  1  0      
 17 18  1  0      
 17 21  1  0      
 18 19  1  0      
 18 20  2  0      
 21 22  1  0      
 22 60  1  0      
 22 61  1  0      
 22 62  1  0      
 23 63  1  0      
 23 64  1  0      
 23 65  1  0      
 24 66  1  0      
 24 67  1  0      
 24 68  1  0      
 25 69  1  0      
 26 70  1  0      
 26 71  1  0      
 26 72  1  0      
 27 73  1  0      
 27 74  1  0      
 27 75  1  0      
 28 29  1  0      
 29 76  1  0      
 29 77  1  0      
 29 78  1  0      
 30 79  1  0      
 30 80  1  0      
 30 81  1  0      
 31 82  1  0      
 32 83  1  0      
 32 84  1  0      
 32 85  1  0      
 34 33  1  0      
 33 38  1  0      
 33 86  1  0      
 33 87  1  0      
 34 35  1  0      
 34 44  1  0      
 36 35  1  0      
 37 36  1  0      
 36 39  1  0      
 36 88  1  0      
 38 37  1  0      
 37 42  1  0      
 37 89  1  0      
 38 43  1  0      
 38 90  1  0      
 39 40  1  0      
 39 41  1  0      
 39 91  1  0      
 40 92  1  0      
 40 93  1  0      
 40 94  1  0      
 41 95  1  0      
 41 96  1  0      
 41 97  1  0      
 42 98  1  0      
 42 99  1  0      
 42100  1  0      
 43101  1  0      
 44102  1  0      
M  END
