
  Chem3D Core 15.001121613303D

122124  0  0  0  0  0  0  0  0999 V2000
    4.8700   -4.7367    0.5160 C   0  0  0  0  0  0  0  0  0  0  0  0
    5.5585   -3.9961    1.6849 C   0  0  0  0  0  0  0  0  0  0  0  0
    5.3912   -2.4624    1.6816 C   0  0  0  0  0  0  0  0  0  0  0  0
    4.0367   -5.9861    0.8864 C   0  0  0  0  0  0  0  0  0  0  0  0
    3.9571   -2.0295    1.4327 C   0  0  0  0  0  0  0  0  0  0  0  0
    2.9054   -1.9316    2.2705 C   0  0  0  0  0  0  0  0  0  0  0  0
    1.6353   -1.7526    1.8385 C   0  0  0  0  0  0  0  0  0  0  0  0
    2.7167   -5.7066    1.5911 C   0  0  0  0  0  0  0  0  0  0  0  0
    1.6678   -5.1932    0.9167 C   0  0  0  0  0  0  0  0  0  0  0  0
    2.6293   -6.0659    3.0580 C   0  0  0  0  0  0  0  0  0  0  0  0
    0.4707   -4.8957    1.4533 C   0  0  0  0  0  0  0  0  0  0  0  0
   -0.5659   -4.3915    0.7598 C   0  0  0  0  0  0  0  0  0  0  0  0
   -1.9075   -4.0632    1.3932 C   0  0  0  0  0  0  0  0  0  0  0  0
   -2.2617   -2.5642    1.3094 C   0  0  0  0  0  0  0  0  0  0  0  0
   -2.9467   -4.7956    0.7753 O   0  0  0  0  0  0  0  0  0  0  0  0
   -2.8445   -6.1875    0.9843 C   0  0  0  0  0  0  0  0  0  0  0  0
    3.0879   -2.1366    3.7662 C   0  0  0  0  0  0  0  0  0  0  0  0
    1.0934   -1.4722    0.6297 C   0  0  0  0  0  0  0  0  0  0  0  0
   -0.2780   -1.4419    0.5349 C   0  0  0  0  0  0  0  0  0  0  0  0
    1.8116   -1.1046   -0.4866 O   0  0  0  0  0  0  0  0  0  0  0  0
    1.9254   -2.0848   -1.4969 C   0  0  0  0  0  0  0  0  0  0  0  0
   -0.7730   -1.1862   -0.5436 O   0  0  0  0  0  0  0  0  0  0  0  0
   -1.1073   -1.8112    1.5710 O   0  0  0  0  0  0  0  0  0  0  0  0
    6.1079   -1.7479    2.8381 C   0  0  0  0  0  0  0  0  0  0  0  0
    5.1452   -4.5286    2.9150 O   0  0  0  0  0  0  0  0  0  0  0  0
    5.9222   -5.1085   -0.5493 C   0  0  0  0  0  0  0  0  0  0  0  0
   -3.3789   -2.1833    2.3070 C   0  0  0  0  0  0  0  0  0  0  0  0
   -2.8190   -1.8000    3.6922 C   0  0  0  0  0  0  0  0  0  0  0  0
   -4.4953   -1.2742    1.7416 C   0  0  0  0  0  0  0  0  0  0  0  0
   -4.1570    0.0770    1.0708 C   0  0  0  0  0  0  0  0  0  0  0  0
   -5.4452   -1.0666    2.7651 O   0  0  0  0  0  0  0  0  0  0  0  0
   -3.8094    1.1368    2.1360 C   0  0  0  0  0  0  0  0  0  0  0  0
   -5.2742    0.5830    0.1218 C   0  0  0  0  0  0  0  0  0  0  0  0
   -5.2085    2.0278   -0.3595 C   0  0  0  0  0  0  0  0  0  0  0  0
   -4.3317    2.2035   -1.5909 C   0  0  0  0  0  0  0  0  0  0  0  0
   -4.8473    1.2555   -2.6726 C   0  0  0  0  0  0  0  0  0  0  0  0
   -4.9649   -0.1889   -2.1660 C   0  0  0  0  0  0  0  0  0  0  0  0
   -5.6208   -0.3005   -0.9256 O   0  0  0  0  0  0  0  0  0  0  0  0
   -6.5028    0.4823    0.8271 O   0  0  0  0  0  0  0  0  0  0  0  0
   -3.7128   -1.0797   -2.2400 C   0  0  0  0  0  0  0  0  0  0  0  0
   -4.0668   -2.5696   -2.0497 C   0  0  0  0  0  0  0  0  0  0  0  0
   -2.8992   -0.9456   -3.5408 C   0  0  0  0  0  0  0  0  0  0  0  0
   -6.1928    1.7368   -3.2585 C   0  0  0  0  0  0  0  0  0  0  0  0
   -3.0091    1.9309   -1.2388 O   0  0  0  0  0  0  0  0  0  0  0  0
   -2.0007    2.4588   -1.9867 C   0  0  0  0  0  0  0  0  0  0  0  0
   -0.6590    2.1740   -1.3251 C   0  0  0  0  0  0  0  0  0  0  0  0
   -2.1323    3.0778   -3.0185 O   0  0  0  0  0  0  0  0  0  0  0  0
   -0.5299    2.7413    0.1027 C   0  0  0  0  0  0  0  0  0  0  0  0
    0.8032    2.3774    0.7458 C   0  0  0  0  0  0  0  0  0  0  0  0
    1.8406    3.2595    0.6293 N   0  0  0  0  0  0  0  0  0  0  0  0
    1.7587    4.6758    0.2436 C   0  0  0  0  0  0  0  0  0  0  0  0
    0.6009    5.0784   -0.6816 C   0  0  0  0  0  0  0  0  0  0  0  0
   -0.9159    4.5163    0.1317 S   0  0  0  0  0  0  0  0  0  0  0  0
    0.9751    1.3318    1.3195 O   0  0  0  0  0  0  0  0  0  0  0  0
    1.8569    5.5567    1.4907 C   0  0  0  0  0  0  0  0  0  0  0  0
    2.2992    4.8533    2.5515 O   0  0  0  0  0  0  0  0  0  0  0  0
    1.6027    6.7352    1.5699 O   0  0  0  0  0  0  0  0  0  0  0  0
    4.1632   -4.0483   -0.0027 H   0  0  0  0  0  0  0  0  0  0  0  0
    6.6532   -4.2175    1.6651 H   0  0  0  0  0  0  0  0  0  0  0  0
    5.9546   -2.1129    0.7729 H   0  0  0  0  0  0  0  0  0  0  0  0
    3.7696   -6.5277   -0.0530 H   0  0  0  0  0  0  0  0  0  0  0  0
    4.6631   -6.7094    1.4545 H   0  0  0  0  0  0  0  0  0  0  0  0
    3.7962   -1.8846    0.3579 H   0  0  0  0  0  0  0  0  0  0  0  0
    0.9121   -1.8857    2.6598 H   0  0  0  0  0  0  0  0  0  0  0  0
    1.8110   -5.0035   -0.1598 H   0  0  0  0  0  0  0  0  0  0  0  0
    1.7607   -6.7352    3.2500 H   0  0  0  0  0  0  0  0  0  0  0  0
    3.5213   -6.6236    3.4175 H   0  0  0  0  0  0  0  0  0  0  0  0
    2.5226   -5.1527    3.6850 H   0  0  0  0  0  0  0  0  0  0  0  0
    0.3048   -5.0625    2.5292 H   0  0  0  0  0  0  0  0  0  0  0  0
   -0.4763   -4.2006   -0.3229 H   0  0  0  0  0  0  0  0  0  0  0  0
   -1.8742   -4.3408    2.4728 H   0  0  0  0  0  0  0  0  0  0  0  0
   -2.6328   -2.3765    0.2810 H   0  0  0  0  0  0  0  0  0  0  0  0
   -3.7165   -6.6710    0.4901 H   0  0  0  0  0  0  0  0  0  0  0  0
   -1.9139   -6.5869    0.5255 H   0  0  0  0  0  0  0  0  0  0  0  0
   -2.8783   -6.4195    2.0718 H   0  0  0  0  0  0  0  0  0  0  0  0
    3.7279   -3.0026    4.0178 H   0  0  0  0  0  0  0  0  0  0  0  0
    3.5333   -1.2173    4.2101 H   0  0  0  0  0  0  0  0  0  0  0  0
    2.1449   -2.3261    4.3242 H   0  0  0  0  0  0  0  0  0  0  0  0
    2.5904   -1.6817   -2.2928 H   0  0  0  0  0  0  0  0  0  0  0  0
    2.3772   -3.0116   -1.0871 H   0  0  0  0  0  0  0  0  0  0  0  0
    0.9388   -2.3233   -1.9473 H   0  0  0  0  0  0  0  0  0  0  0  0
    5.7556   -2.0605    3.8424 H   0  0  0  0  0  0  0  0  0  0  0  0
    5.9821   -0.6432    2.7632 H   0  0  0  0  0  0  0  0  0  0  0  0
    7.2016   -1.9610    2.8172 H   0  0  0  0  0  0  0  0  0  0  0  0
    5.5987   -4.0857    3.6340 H   0  0  0  0  0  0  0  0  0  0  0  0
    5.4502   -5.5354   -1.4636 H   0  0  0  0  0  0  0  0  0  0  0  0
    6.6404   -5.8645   -0.1578 H   0  0  0  0  0  0  0  0  0  0  0  0
    6.5029   -4.2139   -0.8723 H   0  0  0  0  0  0  0  0  0  0  0  0
   -3.9382   -3.1350    2.5218 H   0  0  0  0  0  0  0  0  0  0  0  0
   -2.1930   -2.6212    4.1101 H   0  0  0  0  0  0  0  0  0  0  0  0
   -3.6241   -1.6085    4.4361 H   0  0  0  0  0  0  0  0  0  0  0  0
   -2.1661   -0.9032    3.6683 H   0  0  0  0  0  0  0  0  0  0  0  0
   -5.0234   -1.8913    0.9756 H   0  0  0  0  0  0  0  0  0  0  0  0
   -3.2276   -0.0614    0.4752 H   0  0  0  0  0  0  0  0  0  0  0  0
   -6.1917   -0.5683    2.4332 H   0  0  0  0  0  0  0  0  0  0  0  0
   -3.3415    2.0447    1.6994 H   0  0  0  0  0  0  0  0  0  0  0  0
   -3.0605    0.7709    2.8656 H   0  0  0  0  0  0  0  0  0  0  0  0
   -4.7077    1.4568    2.7098 H   0  0  0  0  0  0  0  0  0  0  0  0
   -4.9022    2.7332    0.4416 H   0  0  0  0  0  0  0  0  0  0  0  0
   -6.2363    2.3762   -0.6165 H   0  0  0  0  0  0  0  0  0  0  0  0
   -4.4017    3.2671   -1.9229 H   0  0  0  0  0  0  0  0  0  0  0  0
   -4.1444    1.3063   -3.5375 H   0  0  0  0  0  0  0  0  0  0  0  0
   -5.6516   -0.6948   -2.8935 H   0  0  0  0  0  0  0  0  0  0  0  0
   -7.2016    0.4126    0.1732 H   0  0  0  0  0  0  0  0  0  0  0  0
   -3.0365   -0.7716   -1.4177 H   0  0  0  0  0  0  0  0  0  0  0  0
   -3.1510   -3.2022   -2.0021 H   0  0  0  0  0  0  0  0  0  0  0  0
   -4.6345   -2.7572   -1.1127 H   0  0  0  0  0  0  0  0  0  0  0  0
   -4.6880   -2.9455   -2.8938 H   0  0  0  0  0  0  0  0  0  0  0  0
   -2.0797   -1.6991   -3.5818 H   0  0  0  0  0  0  0  0  0  0  0  0
   -2.3943    0.0418   -3.6271 H   0  0  0  0  0  0  0  0  0  0  0  0
   -3.5437   -1.0973   -4.4361 H   0  0  0  0  0  0  0  0  0  0  0  0
   -7.0368    1.6126   -2.5451 H   0  0  0  0  0  0  0  0  0  0  0  0
   -6.4618    1.1620   -4.1746 H   0  0  0  0  0  0  0  0  0  0  0  0
   -6.1483    2.8096   -3.5549 H   0  0  0  0  0  0  0  0  0  0  0  0
   -0.5251    1.0705   -1.3085 H   0  0  0  0  0  0  0  0  0  0  0  0
    0.1593    2.5467   -1.9803 H   0  0  0  0  0  0  0  0  0  0  0  0
   -1.2969    2.2331    0.7368 H   0  0  0  0  0  0  0  0  0  0  0  0
    2.7044    2.9463    1.0718 H   0  0  0  0  0  0  0  0  0  0  0  0
    2.7095    4.8982   -0.3038 H   0  0  0  0  0  0  0  0  0  0  0  0
    0.5773    6.1809   -0.8386 H   0  0  0  0  0  0  0  0  0  0  0  0
    0.7292    4.6302   -1.6913 H   0  0  0  0  0  0  0  0  0  0  0  0
    2.3610    5.4449    3.3187 H   0  0  0  0  0  0  0  0  0  0  0  0
  1  2  1  0      
  4  1  1  0      
  1 26  1  0      
  1 58  1  0      
  2  3  1  0      
  2 25  1  0      
  2 59  1  0      
  3  5  1  0      
  3 24  1  0      
  3 60  1  0      
  8  4  1  0      
  4 61  1  0      
  4 62  1  0      
  5  6  2  0      
  5 63  1  0      
  6  7  1  0      
  6 17  1  0      
  7 18  2  0      
  7 64  1  0      
  9  8  2  0      
  8 10  1  0      
 11  9  1  0      
  9 65  1  0      
 10 66  1  0      
 10 67  1  0      
 10 68  1  0      
 12 11  2  0      
 11 69  1  0      
 13 12  1  0      
 12 70  1  0      
 13 14  1  0      
 13 15  1  0      
 13 71  1  0      
 23 14  1  0      
 14 27  1  0      
 14 72  1  0      
 15 16  1  0      
 16 73  1  0      
 16 74  1  0      
 16 75  1  0      
 17 76  1  0      
 17 77  1  0      
 17 78  1  0      
 18 19  1  0      
 18 20  1  0      
 19 22  2  0      
 19 23  1  0      
 20 21  1  0      
 21 79  1  0      
 21 80  1  0      
 21 81  1  0      
 24 82  1  0      
 24 83  1  0      
 24 84  1  0      
 25 85  1  0      
 26 86  1  0      
 26 87  1  0      
 26 88  1  0      
 27 28  1  0      
 27 29  1  0      
 27 89  1  0      
 28 90  1  0      
 28 91  1  0      
 28 92  1  0      
 29 30  1  0      
 29 31  1  0      
 29 93  1  0      
 30 32  1  0      
 30 33  1  0      
 30 94  1  0      
 31 95  1  0      
 32 96  1  0      
 32 97  1  0      
 32 98  1  0      
 33 34  1  0      
 33 38  1  0      
 33 39  1  0      
 34 35  1  0      
 34 99  1  0      
 34100  1  0      
 35 36  1  0      
 35 44  1  0      
 35101  1  0      
 36 37  1  0      
 36 43  1  0      
 36102  1  0      
 37 38  1  0      
 37 40  1  0      
 37103  1  0      
 39104  1  0      
 40 41  1  0      
 40 42  1  0      
 40105  1  0      
 41106  1  0      
 41107  1  0      
 41108  1  0      
 42109  1  0      
 42110  1  0      
 42111  1  0      
 43112  1  0      
 43113  1  0      
 43114  1  0      
 44 45  1  0      
 45 46  1  0      
 45 47  2  0      
 48 46  1  0      
 46115  1  0      
 46116  1  0      
 49 48  1  0      
 48 53  1  0      
 48117  1  0      
 49 50  1  0      
 49 54  2  0      
 51 50  1  0      
 50118  1  0      
 52 51  1  0      
 51 55  1  0      
 51119  1  0      
 53 52  1  0      
 52120  1  0      
 52121  1  0      
 55 56  1  0      
 55 57  2  0      
 56122  1  0      
M  END
