
  Chem3D Core 15.008141512243D

 67 70  0  0  0  0  0  0  0  0999 V2000
   -2.4136    0.1012    3.0382 C   0  0  0  0  0  0  0  0  0  0  0  0
   -1.0928   -0.1229    2.9556 C   0  0  0  0  0  0  0  0  0  0  0  0
   -0.2044    0.8844    2.8775 C   0  0  0  0  0  0  0  0  0  0  0  0
   -0.7379    2.1172    2.9513 C   0  0  0  0  0  0  0  0  0  0  0  0
   -2.9546    1.3305    3.0291 C   0  0  0  0  0  0  0  0  0  0  0  0
   -2.0609    2.3442    3.0388 C   0  0  0  0  0  0  0  0  0  0  0  0
   -4.2762    1.6237    3.0853 C   0  0  0  0  0  0  0  0  0  0  0  0
   -3.6859    3.7362    3.2342 C   0  0  0  0  0  0  0  0  0  0  0  0
   -4.5853    2.8509    3.2279 N   0  0  0  0  0  0  0  0  0  0  0  0
   -2.4441    3.5474    3.1248 N   0  0  0  0  0  0  0  0  0  0  0  0
   -5.3197    0.8918    3.0086 N   0  0  0  0  0  0  0  0  0  0  0  0
   -5.7470   -0.2708    2.7224 C   0  0  0  0  0  0  0  0  0  0  0  0
   -5.1745   -1.3598    2.1794 C   0  0  0  0  0  0  0  0  0  0  0  0
   -6.1209   -2.3022    2.0698 C   0  0  0  0  0  0  0  0  0  0  0  0
   -6.9726   -0.5689    2.8877 N   0  0  0  0  0  0  0  0  0  0  0  0
   -7.1555   -1.7314    2.5245 N   0  0  0  0  0  0  0  0  0  0  0  0
   -5.9674   -3.6729    1.4765 C   0  0  0  0  0  0  0  0  0  0  0  0
   -5.0821   -3.6803    0.2391 C   0  0  0  0  0  0  0  0  0  0  0  0
   -4.3096   -4.5779    0.0169 O   0  0  0  0  0  0  0  0  0  0  0  0
   -5.2495   -2.5855   -0.5564 N   0  0  0  0  0  0  0  0  0  0  0  0
   -4.7005   -2.1998   -1.7267 C   0  0  0  0  0  0  0  0  0  0  0  0
   -5.0975   -0.9960   -2.1820 C   0  0  0  0  0  0  0  0  0  0  0  0
   -3.8135   -2.8907   -2.4644 C   0  0  0  0  0  0  0  0  0  0  0  0
   -3.3400   -2.3908   -3.6174 C   0  0  0  0  0  0  0  0  0  0  0  0
   -4.6311   -0.4856   -3.3329 C   0  0  0  0  0  0  0  0  0  0  0  0
    1.1611    0.7497    2.8003 O   0  0  0  0  0  0  0  0  0  0  0  0
    1.7226   -0.5359    2.8575 C   0  0  0  0  0  0  0  0  0  0  0  0
    3.2466   -0.4115    2.7712 C   0  0  0  0  0  0  0  0  0  0  0  0
    3.9334   -1.7913    2.7696 C   0  0  0  0  0  0  0  0  0  0  0  0
   -3.7461   -1.1896   -4.0537 C   0  0  0  0  0  0  0  0  0  0  0  0
   -5.0407    0.7017   -3.7513 F   0  0  0  0  0  0  0  0  0  0  0  0
    5.3891   -1.7672    2.9410 N   0  0  0  0  0  0  0  0  0  0  0  0
    5.9060   -3.1364    2.9937 C   0  0  0  0  0  0  0  0  0  0  0  0
    7.0607   -3.3062    3.9829 C   0  0  0  0  0  0  0  0  0  0  0  0
    7.3952   -4.6768    4.0826 O   0  0  0  0  0  0  0  0  0  0  0  0
    6.0235   -0.9546    1.9026 C   0  0  0  0  0  0  0  0  0  0  0  0
    7.5565   -0.8732    1.9396 C   0  0  0  0  0  0  0  0  0  0  0  0
   -3.0359   -0.7827    3.1988 H   0  0  0  0  0  0  0  0  0  0  0  0
   -0.7568   -1.1720    2.9823 H   0  0  0  0  0  0  0  0  0  0  0  0
   -0.0409    2.9742    2.9436 H   0  0  0  0  0  0  0  0  0  0  0  0
   -4.0204    4.7832    3.3314 H   0  0  0  0  0  0  0  0  0  0  0  0
   -6.1665    1.4751    3.2502 H   0  0  0  0  0  0  0  0  0  0  0  0
   -4.1550   -1.5092    1.8169 H   0  0  0  0  0  0  0  0  0  0  0  0
   -8.1098   -2.1532    2.5846 H   0  0  0  0  0  0  0  0  0  0  0  0
   -5.5563   -4.3559    2.2549 H   0  0  0  0  0  0  0  0  0  0  0  0
   -6.9700   -4.0558    1.1743 H   0  0  0  0  0  0  0  0  0  0  0  0
   -5.8899   -1.8772   -0.2239 H   0  0  0  0  0  0  0  0  0  0  0  0
   -5.8240   -0.3987   -1.6040 H   0  0  0  0  0  0  0  0  0  0  0  0
   -3.4452   -3.8811   -2.1625 H   0  0  0  0  0  0  0  0  0  0  0  0
   -2.6131   -2.9696   -4.2123 H   0  0  0  0  0  0  0  0  0  0  0  0
    1.4404   -1.0178    3.8225 H   0  0  0  0  0  0  0  0  0  0  0  0
    1.3534   -1.1381    1.9946 H   0  0  0  0  0  0  0  0  0  0  0  0
    3.4877    0.1456    1.8348 H   0  0  0  0  0  0  0  0  0  0  0  0
    3.6182    0.1894    3.6358 H   0  0  0  0  0  0  0  0  0  0  0  0
    3.4821   -2.3598    3.6199 H   0  0  0  0  0  0  0  0  0  0  0  0
    3.6592   -2.3314    1.8315 H   0  0  0  0  0  0  0  0  0  0  0  0
   -3.3552   -0.7823   -5.0007 H   0  0  0  0  0  0  0  0  0  0  0  0
    5.1179   -3.8415    3.3544 H   0  0  0  0  0  0  0  0  0  0  0  0
    6.1861   -3.5031    1.9792 H   0  0  0  0  0  0  0  0  0  0  0  0
    7.9893   -2.7757    3.6920 H   0  0  0  0  0  0  0  0  0  0  0  0
    6.7659   -2.9643    5.0007 H   0  0  0  0  0  0  0  0  0  0  0  0
    8.1098   -4.7832    4.7151 H   0  0  0  0  0  0  0  0  0  0  0  0
    5.6779    0.1024    2.0018 H   0  0  0  0  0  0  0  0  0  0  0  0
    5.7137   -1.3078    0.8894 H   0  0  0  0  0  0  0  0  0  0  0  0
    7.9280   -0.1149    1.2116 H   0  0  0  0  0  0  0  0  0  0  0  0
    8.0355   -1.8348    1.6493 H   0  0  0  0  0  0  0  0  0  0  0  0
    7.9210   -0.5629    2.9455 H   0  0  0  0  0  0  0  0  0  0  0  0
  1  2  2  0      
  5  1  1  0      
  1 38  1  0      
  3  2  1  0      
  2 39  1  0      
  3  4  2  0      
  3 26  1  0      
  4  6  1  0      
  4 40  1  0      
  6  5  1  0      
  7  5  2  0      
  6 10  2  0      
  9  7  1  0      
  7 11  1  0      
  8  9  2  0      
 10  8  1  0      
  8 41  1  0      
 11 12  1  0      
 11 42  1  0      
 12 13  1  0      
 12 15  2  0      
 13 14  2  0      
 13 43  1  0      
 14 16  1  0      
 14 17  1  0      
 16 15  1  0      
 16 44  1  0      
 17 18  1  0      
 17 45  1  0      
 17 46  1  0      
 18 19  2  0      
 18 20  1  0      
 20 21  1  0      
 20 47  1  0      
 21 22  1  0      
 21 23  2  0      
 22 25  2  0      
 22 48  1  0      
 24 23  1  0      
 23 49  1  0      
 30 24  2  0      
 24 50  1  0      
 25 30  1  0      
 25 31  1  0      
 26 27  1  0      
 27 28  1  0      
 27 51  1  0      
 27 52  1  0      
 28 29  1  0      
 28 53  1  0      
 28 54  1  0      
 29 32  1  0      
 29 55  1  0      
 29 56  1  0      
 30 57  1  0      
 32 33  1  0      
 32 36  1  0      
 33 34  1  0      
 33 58  1  0      
 33 59  1  0      
 34 35  1  0      
 34 60  1  0      
 34 61  1  0      
 35 62  1  0      
 36 37  1  0      
 36 63  1  0      
 36 64  1  0      
 37 65  1  0      
 37 66  1  0      
 37 67  1  0      
M  END
