
  Chem3D Core 15.003111615583D

 68 70  0  0  0  0  0  0  0  0999 V2000
    2.6341    1.1035    1.9364 O   0  0  0  0  0  0  0  0  0  0  0  0
    2.1690    1.1140    0.8236 C   0  0  0  0  0  0  0  0  0  0  0  0
    1.9799   -0.1806    0.0207 C   0  0  0  0  0  0  0  0  0  0  0  0
    1.8639   -0.9697    0.8087 H   0  0  0  0  0  0  0  0  0  0  0  0
    0.8128   -0.3325   -0.8446 N   0  0  0  0  0  0  0  0  0  0  0  0
   -0.4723   -0.0984   -0.4195 C   0  0  0  0  0  0  0  0  0  0  0  0
   -1.6222   -0.6723   -1.2594 C   0  0  0  0  0  0  0  0  0  0  0  0
   -1.2432   -1.3811   -2.0289 H   0  0  0  0  0  0  0  0  0  0  0  0
   -2.4749   -1.4445   -0.3407 N   0  0  0  0  0  0  0  0  0  0  0  0
   -2.1397   -2.6954    0.1014 C   0  0  0  0  0  0  0  0  0  0  0  0
   -3.0129   -3.2828    0.9725 C   0  0  0  0  0  0  0  0  0  0  0  0
   -2.7239   -4.4899    1.4988 C   0  0  0  0  0  0  0  0  0  0  0  0
   -3.5580   -5.0973    2.3573 C   0  0  0  0  0  0  0  0  0  0  0  0
   -4.7103   -4.5100    2.7118 C   0  0  0  0  0  0  0  0  0  0  0  0
   -5.4885   -5.0961    3.5224 N   0  0  0  0  0  0  0  0  0  0  0  0
   -5.0177   -3.3078    2.1970 C   0  0  0  0  0  0  0  0  0  0  0  0
   -6.4979   -2.5126    2.6207 Cl  0  0  0  0  0  0  0  0  0  0  0  0
   -4.1762   -2.7060    1.3380 C   0  0  0  0  0  0  0  0  0  0  0  0
   -1.1069   -3.2037   -0.2698 O   0  0  0  0  0  0  0  0  0  0  0  0
   -2.4869    0.3674   -2.0244 C   0  0  0  0  0  0  0  0  0  0  0  0
   -3.0197    1.4774   -1.0958 C   0  0  0  0  0  0  0  0  0  0  0  0
   -1.6726    1.0208   -3.1593 C   0  0  0  0  0  0  0  0  0  0  0  0
   -3.6973   -0.3468   -2.6705 C   0  0  0  0  0  0  0  0  0  0  0  0
   -0.7068    0.4872    0.6086 O   0  0  0  0  0  0  0  0  0  0  0  0
    1.2082   -0.9707   -2.0932 C   0  0  0  0  0  0  0  0  0  0  0  0
    2.6938   -0.6187   -2.2563 C   0  0  0  0  0  0  0  0  0  0  0  0
    3.2151   -0.5620   -0.8158 C   0  0  0  0  0  0  0  0  0  0  0  0
    1.8214    2.3189    0.2772 N   0  0  0  0  0  0  0  0  0  0  0  0
    1.5190    2.6274   -1.1230 C   0  0  0  0  0  0  0  0  0  0  0  0
    1.2189    1.7408   -1.7097 H   0  0  0  0  0  0  0  0  0  0  0  0
    0.4407    3.7165   -1.1687 C   0  0  0  0  0  0  0  0  0  0  0  0
    2.6778    3.3725   -1.7729 C   0  0  0  0  0  0  0  0  0  0  0  0
    2.6147    3.2569   -2.8825 H   0  0  0  0  0  0  0  0  0  0  0  0
    3.9331    2.8680   -1.3672 O   0  0  0  0  0  0  0  0  0  0  0  0
    4.5945    3.5715   -0.3457 C   0  0  0  0  0  0  0  0  0  0  0  0
    5.8087    2.7599    0.0972 C   0  0  0  0  0  0  0  0  0  0  0  0
    2.5131    4.7381   -1.4773 O   0  0  0  0  0  0  0  0  0  0  0  0
    1.2384    5.0015   -1.0843 C   0  0  0  0  0  0  0  0  0  0  0  0
    0.8176    6.0851   -0.7436 O   0  0  0  0  0  0  0  0  0  0  0  0
   -3.2886   -0.9814    0.0546 H   0  0  0  0  0  0  0  0  0  0  0  0
   -1.7933   -5.0271    1.2494 H   0  0  0  0  0  0  0  0  0  0  0  0
   -3.2860   -6.0851    2.7679 H   0  0  0  0  0  0  0  0  0  0  0  0
   -6.3913   -4.6395    3.8022 H   0  0  0  0  0  0  0  0  0  0  0  0
   -5.2358   -6.0350    3.9168 H   0  0  0  0  0  0  0  0  0  0  0  0
   -4.4879   -1.7258    0.9457 H   0  0  0  0  0  0  0  0  0  0  0  0
   -3.7181    2.1555   -1.6362 H   0  0  0  0  0  0  0  0  0  0  0  0
   -3.5743    1.0558   -0.2278 H   0  0  0  0  0  0  0  0  0  0  0  0
   -2.2002    2.1180   -0.7034 H   0  0  0  0  0  0  0  0  0  0  0  0
   -2.2666    1.7948   -3.6956 H   0  0  0  0  0  0  0  0  0  0  0  0
   -1.3504    0.2719   -3.9168 H   0  0  0  0  0  0  0  0  0  0  0  0
   -0.7619    1.5204   -2.7679 H   0  0  0  0  0  0  0  0  0  0  0  0
   -3.3719   -1.1819   -3.3314 H   0  0  0  0  0  0  0  0  0  0  0  0
   -4.3868   -0.7712   -1.9067 H   0  0  0  0  0  0  0  0  0  0  0  0
   -4.2985    0.3535   -3.2933 H   0  0  0  0  0  0  0  0  0  0  0  0
    1.0804   -2.0749   -2.0025 H   0  0  0  0  0  0  0  0  0  0  0  0
    0.6419   -0.5931   -2.9727 H   0  0  0  0  0  0  0  0  0  0  0  0
    3.2435   -1.3515   -2.8896 H   0  0  0  0  0  0  0  0  0  0  0  0
    2.8007    0.3857   -2.7302 H   0  0  0  0  0  0  0  0  0  0  0  0
    3.5842   -1.5736   -0.5206 H   0  0  0  0  0  0  0  0  0  0  0  0
    4.0617    0.1507   -0.7034 H   0  0  0  0  0  0  0  0  0  0  0  0
    1.9551    3.1076    0.9102 H   0  0  0  0  0  0  0  0  0  0  0  0
   -0.1018    3.7211   -2.1425 H   0  0  0  0  0  0  0  0  0  0  0  0
   -0.2935    3.6290   -0.3375 H   0  0  0  0  0  0  0  0  0  0  0  0
    4.9333    4.5575   -0.7408 H   0  0  0  0  0  0  0  0  0  0  0  0
    3.9179    3.7252    0.5248 H   0  0  0  0  0  0  0  0  0  0  0  0
    6.3834    3.2998    0.8847 H   0  0  0  0  0  0  0  0  0  0  0  0
    5.5010    1.7758    0.5195 H   0  0  0  0  0  0  0  0  0  0  0  0
    6.4979    2.5674   -0.7568 H   0  0  0  0  0  0  0  0  0  0  0  0
  1  2  2  0      
  2  3  1  0      
  2 28  1  0      
  3  4  1  0      
  5  3  1  0      
  3 27  1  0      
  5  6  1  0      
  5 25  1  0      
  6  7  1  0      
  6 24  2  0      
  7  8  1  0      
  7  9  1  0      
  7 20  1  0      
  9 10  1  0      
  9 40  1  0      
 10 11  1  0      
 10 19  2  0      
 11 12  1  0      
 11 18  2  0      
 12 13  2  0      
 12 41  1  0      
 13 14  1  0      
 13 42  1  0      
 14 15  1  0      
 14 16  2  0      
 15 43  1  0      
 15 44  1  0      
 16 17  1  0      
 16 18  1  0      
 18 45  1  0      
 20 21  1  0      
 20 22  1  0      
 20 23  1  0      
 21 46  1  0      
 21 47  1  0      
 21 48  1  0      
 22 49  1  0      
 22 50  1  0      
 22 51  1  0      
 23 52  1  0      
 23 53  1  0      
 23 54  1  0      
 26 25  1  0      
 25 55  1  0      
 25 56  1  0      
 27 26  1  0      
 26 57  1  0      
 26 58  1  0      
 27 59  1  0      
 27 60  1  0      
 28 29  1  0      
 28 61  1  0      
 29 30  1  0      
 29 31  1  0      
 32 29  1  0      
 31 38  1  0      
 31 62  1  0      
 31 63  1  0      
 32 33  1  0      
 32 34  1  0      
 32 37  1  0      
 34 35  1  0      
 35 36  1  0      
 35 64  1  0      
 35 65  1  0      
 36 66  1  0      
 36 67  1  0      
 36 68  1  0      
 38 37  1  0      
 38 39  2  0      
M  END
