
  Chem3D Core 15.009161511493D

 54 56  0  0  0  0  0  0  0  0999 V2000
   -4.0533    4.3316    2.1323 O   0  0  0  0  0  0  0  0  0  0  0  0
   -4.4116    3.6142    4.1843 O   0  0  0  0  0  0  0  0  0  0  0  0
    1.4264   -0.0326   -0.6278 C   0  0  0  0  0  0  0  0  0  0  0  0
    1.6191   -1.1039   -1.4241 C   0  0  0  0  0  0  0  0  0  0  0  0
    2.2444    1.2558   -0.7403 C   0  0  0  0  0  0  0  0  0  0  0  0
    2.6560   -1.1464   -2.5473 C   0  0  0  0  0  0  0  0  0  0  0  0
   -0.3042   -1.1963    0.5553 C   0  0  0  0  0  0  0  0  0  0  0  0
    0.4977   -0.1322    0.3418 C   0  0  0  0  0  0  0  0  0  0  0  0
    0.8169   -2.1658   -1.2304 C   0  0  0  0  0  0  0  0  0  0  0  0
   -0.1268   -2.2479   -0.2752 C   0  0  0  0  0  0  0  0  0  0  0  0
    3.0004    1.3226   -2.0820 C   0  0  0  0  0  0  0  0  0  0  0  0
    3.6814   -0.0040   -2.4078 C   0  0  0  0  0  0  0  0  0  0  0  0
   -1.1696   -1.1585    1.6027 C   0  0  0  0  0  0  0  0  0  0  0  0
   -1.8381   -0.0268    1.9550 C   0  0  0  0  0  0  0  0  0  0  0  0
    1.3413    2.5135   -0.6918 C   0  0  0  0  0  0  0  0  0  0  0  0
    3.2377    1.3189    0.4409 C   0  0  0  0  0  0  0  0  0  0  0  0
    3.4703   -2.4630   -2.5309 C   0  0  0  0  0  0  0  0  0  0  0  0
    1.9179   -1.0446   -3.9004 C   0  0  0  0  0  0  0  0  0  0  0  0
   -1.0073   -3.4857   -0.2979 C   0  0  0  0  0  0  0  0  0  0  0  0
   -2.3833    0.1769    3.1725 C   0  0  0  0  0  0  0  0  0  0  0  0
   -2.0479    0.9732    1.0717 C   0  0  0  0  0  0  0  0  0  0  0  0
   -1.3009   -2.2844    2.3355 C   0  0  0  0  0  0  0  0  0  0  0  0
   -3.2209    2.2921    2.6089 C   0  0  0  0  0  0  0  0  0  0  0  0
   -3.0459    1.2994    3.4982 C   0  0  0  0  0  0  0  0  0  0  0  0
   -2.7094    2.1004    1.3803 C   0  0  0  0  0  0  0  0  0  0  0  0
   -3.8943    3.4344    2.9399 C   0  0  0  0  0  0  0  0  0  0  0  0
   -4.2352    2.8510    4.7529 H   0  0  0  0  0  0  0  0  0  0  0  0
    0.4425    0.7116    1.0466 H   0  0  0  0  0  0  0  0  0  0  0  0
    0.9141   -3.0282   -1.9075 H   0  0  0  0  0  0  0  0  0  0  0  0
    2.2963    1.5762   -2.9075 H   0  0  0  0  0  0  0  0  0  0  0  0
    3.7551    2.1438   -2.0611 H   0  0  0  0  0  0  0  0  0  0  0  0
    4.4116   -0.2394   -1.5998 H   0  0  0  0  0  0  0  0  0  0  0  0
    4.2818    0.0942   -3.3427 H   0  0  0  0  0  0  0  0  0  0  0  0
    0.5277    2.4539   -1.4504 H   0  0  0  0  0  0  0  0  0  0  0  0
    0.8623    2.6827    0.2968 H   0  0  0  0  0  0  0  0  0  0  0  0
    1.9293    3.4361   -0.9007 H   0  0  0  0  0  0  0  0  0  0  0  0
    2.7151    1.3838    1.4213 H   0  0  0  0  0  0  0  0  0  0  0  0
    3.8902    0.4192    0.4869 H   0  0  0  0  0  0  0  0  0  0  0  0
    3.8976    2.2127    0.3692 H   0  0  0  0  0  0  0  0  0  0  0  0
    3.9261   -2.6417   -1.5303 H   0  0  0  0  0  0  0  0  0  0  0  0
    2.8683   -3.3608   -2.7897 H   0  0  0  0  0  0  0  0  0  0  0  0
    4.2974   -2.4309   -3.2762 H   0  0  0  0  0  0  0  0  0  0  0  0
    1.2461   -1.9151   -4.0725 H   0  0  0  0  0  0  0  0  0  0  0  0
    1.2821   -0.1340   -3.9627 H   0  0  0  0  0  0  0  0  0  0  0  0
    2.6336   -1.0166   -4.7529 H   0  0  0  0  0  0  0  0  0  0  0  0
   -2.0275   -3.3022    0.1051 H   0  0  0  0  0  0  0  0  0  0  0  0
   -1.1872   -3.8328   -1.3407 H   0  0  0  0  0  0  0  0  0  0  0  0
   -0.5271   -4.3316    0.2441 H   0  0  0  0  0  0  0  0  0  0  0  0
   -2.2790   -0.5547    3.9892 H   0  0  0  0  0  0  0  0  0  0  0  0
   -1.7161    0.8932    0.0221 H   0  0  0  0  0  0  0  0  0  0  0  0
   -1.9948   -2.4103    3.1757 H   0  0  0  0  0  0  0  0  0  0  0  0
   -0.6750   -3.1727    2.1749 H   0  0  0  0  0  0  0  0  0  0  0  0
   -3.4309    1.3690    4.5285 H   0  0  0  0  0  0  0  0  0  0  0  0
   -2.8266    2.8502    0.5797 H   0  0  0  0  0  0  0  0  0  0  0  0
  1 26  2  0      
  2 26  1  0      
  2 27  1  0      
  3  4  2  0      
  5  3  1  0      
  3  8  1  0      
  4  6  1  0      
  9  4  1  0      
 11  5  1  0      
  5 15  1  0      
  5 16  1  0      
  6 12  1  0      
  6 17  1  0      
  6 18  1  0      
  8  7  2  0      
  7 10  1  0      
  7 13  1  0      
  8 28  1  0      
 10  9  2  0      
  9 29  1  0      
 10 19  1  0      
 11 12  1  0      
 11 30  1  0      
 11 31  1  0      
 12 32  1  0      
 12 33  1  0      
 13 14  1  0      
 13 22  2  0      
 14 20  1  0      
 14 21  2  0      
 15 34  1  0      
 15 35  1  0      
 15 36  1  0      
 16 37  1  0      
 16 38  1  0      
 16 39  1  0      
 17 40  1  0      
 17 41  1  0      
 17 42  1  0      
 18 43  1  0      
 18 44  1  0      
 18 45  1  0      
 19 46  1  0      
 19 47  1  0      
 19 48  1  0      
 20 24  2  0      
 20 49  1  0      
 25 21  1  0      
 21 50  1  0      
 22 51  1  0      
 22 52  1  0      
 24 23  1  0      
 23 25  2  0      
 23 26  1  0      
 24 53  1  0      
 25 54  1  0      
M  END
