
  Chem3D Core 15.010021516003D

 43 44  0  0  0  0  0  0  0  0999 V2000
    4.5969   -0.2135    1.1758 C   0  0  0  0  0  0  0  0  0  0  0  0
    4.9224   -1.1036    2.1362 C   0  0  0  0  0  0  0  0  0  0  0  0
    3.3023    0.1411    1.0494 C   0  0  0  0  0  0  0  0  0  0  0  0
    5.6537    0.3781    0.2583 C   0  0  0  0  0  0  0  0  0  0  0  0
    3.9666   -1.6101    2.9330 C   0  0  0  0  0  0  0  0  0  0  0  0
    6.1568   -1.5175    2.3446 C   0  0  0  0  0  0  0  0  0  0  0  0
    2.3312   -0.3538    1.8372 C   0  0  0  0  0  0  0  0  0  0  0  0
    6.5717    0.9993    0.9824 F   0  0  0  0  0  0  0  0  0  0  0  0
    6.2653   -0.5958   -0.3977 F   0  0  0  0  0  0  0  0  0  0  0  0
    5.1907    1.2388   -0.6340 F   0  0  0  0  0  0  0  0  0  0  0  0
    2.6872   -1.2389    2.7843 C   0  0  0  0  0  0  0  0  0  0  0  0
    7.2355   -1.8924    2.5415 N   0  0  0  0  0  0  0  0  0  0  0  0
    1.0152   -0.0594    1.7855 N   0  0  0  0  0  0  0  0  0  0  0  0
    0.2808    0.7700    0.9931 C   0  0  0  0  0  0  0  0  0  0  0  0
   -1.2182    0.7885    1.2963 C   0  0  0  0  0  0  0  0  0  0  0  0
    0.7129    1.4641    0.1085 O   0  0  0  0  0  0  0  0  0  0  0  0
   -1.8181   -0.6144    1.1082 C   0  0  0  0  0  0  0  0  0  0  0  0
   -1.4252    1.3589    2.7001 C   0  0  0  0  0  0  0  0  0  0  0  0
   -1.8259    1.6573    0.3633 O   0  0  0  0  0  0  0  0  0  0  0  0
   -3.5768   -0.7493    0.9727 S   0  0  0  0  0  0  0  0  0  0  0  0
   -4.3549    0.0265   -0.4580 C   0  0  0  0  0  0  0  0  0  0  0  0
   -4.3341   -0.0297    1.9937 O   0  0  0  0  0  0  0  0  0  0  0  0
   -4.0336   -2.0604    0.5044 O   0  0  0  0  0  0  0  0  0  0  0  0
   -3.6580    0.1630   -1.6013 C   0  0  0  0  0  0  0  0  0  0  0  0
   -5.6331    0.4490   -0.4408 C   0  0  0  0  0  0  0  0  0  0  0  0
   -4.2097    0.7290   -2.6859 C   0  0  0  0  0  0  0  0  0  0  0  0
   -6.1877    1.0154   -1.5243 C   0  0  0  0  0  0  0  0  0  0  0  0
   -5.4783    1.1633   -2.6530 C   0  0  0  0  0  0  0  0  0  0  0  0
   -6.0244    1.7196   -3.7223 F   0  0  0  0  0  0  0  0  0  0  0  0
    3.0532    0.8652    0.2641 H   0  0  0  0  0  0  0  0  0  0  0  0
    4.2202   -2.3394    3.7223 H   0  0  0  0  0  0  0  0  0  0  0  0
    1.9273   -1.6746    3.4563 H   0  0  0  0  0  0  0  0  0  0  0  0
    0.5211   -0.5787    2.4972 H   0  0  0  0  0  0  0  0  0  0  0  0
   -1.3878   -1.0688    0.1850 H   0  0  0  0  0  0  0  0  0  0  0  0
   -1.5006   -1.2685    1.9532 H   0  0  0  0  0  0  0  0  0  0  0  0
   -2.4997    1.5359    2.9234 H   0  0  0  0  0  0  0  0  0  0  0  0
   -0.9079    2.3394    2.8108 H   0  0  0  0  0  0  0  0  0  0  0  0
   -1.0292    0.6761    3.4852 H   0  0  0  0  0  0  0  0  0  0  0  0
   -1.1549    2.1606   -0.1047 H   0  0  0  0  0  0  0  0  0  0  0  0
   -2.6162   -0.1903   -1.6739 H   0  0  0  0  0  0  0  0  0  0  0  0
   -6.2610    0.3372    0.4582 H   0  0  0  0  0  0  0  0  0  0  0  0
   -3.6197    0.8349   -3.6116 H   0  0  0  0  0  0  0  0  0  0  0  0
   -7.2355    1.3580   -1.4905 H   0  0  0  0  0  0  0  0  0  0  0  0
  1  2  1  0      
  1  3  2  0      
  1  4  1  0      
  2  5  2  0      
  2  6  1  0      
  7  3  1  0      
  3 30  1  0      
  4  8  1  0      
  4  9  1  0      
  4 10  1  0      
  5 11  1  0      
  5 31  1  0      
  6 12  3  0      
 11  7  2  0      
  7 13  1  0      
 11 32  1  0      
 13 14  1  0      
 13 33  1  0      
 14 15  1  0      
 14 16  2  0      
 15 17  1  0      
 15 18  1  0      
 15 19  1  0      
 17 20  1  0      
 17 34  1  0      
 17 35  1  0      
 18 36  1  0      
 18 37  1  0      
 18 38  1  0      
 19 39  1  0      
 20 21  1  0      
 20 22  2  0      
 20 23  2  0      
 21 24  1  0      
 21 25  2  0      
 24 26  2  0      
 24 40  1  0      
 27 25  1  0      
 25 41  1  0      
 26 28  1  0      
 26 42  1  0      
 28 27  2  0      
 27 43  1  0      
 28 29  1  0      
M  END
