
  Chem3D Core 15.003181614543D

114119  0  0  0  0  0  0  0  0999 V2000
    2.2443    5.9418   -4.9432 F   0  0  0  0  0  0  0  0  0  0  0  0
   -0.1434   -5.9418   -1.8893 F   0  0  0  0  0  0  0  0  0  0  0  0
   -0.5772   -0.6501    0.0388 O   0  0  0  0  0  0  0  0  0  0  0  0
    2.1858    1.8974    0.0593 O   0  0  0  0  0  0  0  0  0  0  0  0
   -0.6554    4.2339   -1.7539 O   0  0  0  0  0  0  0  0  0  0  0  0
    5.7216   -2.4069   -0.5584 O   0  0  0  0  0  0  0  0  0  0  0  0
   -2.6782   -4.7445   -0.3974 O   0  0  0  0  0  0  0  0  0  0  0  0
   -0.4987   -0.5738    3.1626 O   0  0  0  0  0  0  0  0  0  0  0  0
    1.7799    1.5540   -3.4580 N   0  0  0  0  0  0  0  0  0  0  0  0
    0.0540   -1.3755   -2.8209 N   0  0  0  0  0  0  0  0  0  0  0  0
   -1.6574    0.9880   -1.0819 N   0  0  0  0  0  0  0  0  0  0  0  0
    3.3451   -0.0407   -0.0164 N   0  0  0  0  0  0  0  0  0  0  0  0
   -2.3844   -2.5413   -0.3932 N   0  0  0  0  0  0  0  0  0  0  0  0
    1.4459   -0.9389    2.0411 N   0  0  0  0  0  0  0  0  0  0  0  0
   -3.8643   -3.1362   -3.0041 N   0  0  0  0  0  0  0  0  0  0  0  0
   -1.4595   -3.0072    2.4422 N   0  0  0  0  0  0  0  0  0  0  0  0
    0.8063    0.7499   -3.3083 C   0  0  0  0  0  0  0  0  0  0  0  0
    0.9895   -0.5150   -2.8894 C   0  0  0  0  0  0  0  0  0  0  0  0
   -0.3050    1.4438   -3.6617 C   0  0  0  0  0  0  0  0  0  0  0  0
    2.1235   -1.1616   -2.5223 C   0  0  0  0  0  0  0  0  0  0  0  0
    0.1195    2.6478   -4.0863 C   0  0  0  0  0  0  0  0  0  0  0  0
    1.7697   -2.4346   -2.2635 C   0  0  0  0  0  0  0  0  0  0  0  0
    1.4416    2.6854   -3.9057 C   0  0  0  0  0  0  0  0  0  0  0  0
    0.4557   -2.5245   -2.4787 C   0  0  0  0  0  0  0  0  0  0  0  0
   -1.7669    1.0600   -3.5928 C   0  0  0  0  0  0  0  0  0  0  0  0
    3.5574   -0.6871   -2.4719 C   0  0  0  0  0  0  0  0  0  0  0  0
   -2.4515    1.3911   -2.2395 C   0  0  0  0  0  0  0  0  0  0  0  0
    3.9967    0.2147   -1.2983 C   0  0  0  0  0  0  0  0  0  0  0  0
   -0.5045    3.7228   -4.5860 C   0  0  0  0  0  0  0  0  0  0  0  0
    2.4535   -3.5277   -1.8958 C   0  0  0  0  0  0  0  0  0  0  0  0
    2.1822    3.7637   -4.1779 C   0  0  0  0  0  0  0  0  0  0  0  0
   -0.2087   -3.6789   -2.3681 C   0  0  0  0  0  0  0  0  0  0  0  0
    1.5531    4.8495   -4.6582 C   0  0  0  0  0  0  0  0  0  0  0  0
    0.4731   -4.7757   -1.9974 C   0  0  0  0  0  0  0  0  0  0  0  0
    0.2237    4.8187   -4.8622 C   0  0  0  0  0  0  0  0  0  0  0  0
    1.7937   -4.6907   -1.7595 C   0  0  0  0  0  0  0  0  0  0  0  0
   -2.6751    2.8977   -1.9985 C   0  0  0  0  0  0  0  0  0  0  0  0
    5.4721   -0.0331   -0.9293 C   0  0  0  0  0  0  0  0  0  0  0  0
   -1.5646   -0.2670   -0.5391 C   0  0  0  0  0  0  0  0  0  0  0  0
    2.4618    0.8386    0.5707 C   0  0  0  0  0  0  0  0  0  0  0  0
   -0.8201    2.0903   -0.6435 C   0  0  0  0  0  0  0  0  0  0  0  0
    3.9673   -1.2068    0.5962 C   0  0  0  0  0  0  0  0  0  0  0  0
   -1.5376    3.3616   -1.0862 C   0  0  0  0  0  0  0  0  0  0  0  0
    5.4113   -1.1893    0.0746 C   0  0  0  0  0  0  0  0  0  0  0  0
   -2.8157   -1.1495   -0.5854 C   0  0  0  0  0  0  0  0  0  0  0  0
    1.8595    0.4687    1.9394 C   0  0  0  0  0  0  0  0  0  0  0  0
   -3.7429   -0.7732    0.5911 C   0  0  0  0  0  0  0  0  0  0  0  0
    2.7802    0.9348    3.0846 C   0  0  0  0  0  0  0  0  0  0  0  0
   -3.0773   -3.6653   -0.7559 C   0  0  0  0  0  0  0  0  0  0  0  0
    0.2720   -1.3334    2.6296 C   0  0  0  0  0  0  0  0  0  0  0  0
   -4.3065   -3.4719   -1.6451 C   0  0  0  0  0  0  0  0  0  0  0  0
   -0.0108   -2.8318    2.5860 C   0  0  0  0  0  0  0  0  0  0  0  0
   -4.4161    0.5993    0.4812 C   0  0  0  0  0  0  0  0  0  0  0  0
    2.1494    0.7760    4.4745 C   0  0  0  0  0  0  0  0  0  0  0  0
   -5.2046   -4.7215   -1.6659 C   0  0  0  0  0  0  0  0  0  0  0  0
    0.7544   -3.5976    1.4959 C   0  0  0  0  0  0  0  0  0  0  0  0
   -4.8694   -2.4683   -3.8272 C   0  0  0  0  0  0  0  0  0  0  0  0
   -1.9759   -4.3128    2.8445 C   0  0  0  0  0  0  0  0  0  0  0  0
    0.0670    3.7558   -2.1742 H   0  0  0  0  0  0  0  0  0  0  0  0
    5.9796   -3.0639    0.0919 H   0  0  0  0  0  0  0  0  0  0  0  0
    2.7762    1.3334   -3.2544 H   0  0  0  0  0  0  0  0  0  0  0  0
   -0.9465   -1.2113   -3.0549 H   0  0  0  0  0  0  0  0  0  0  0  0
   -1.5268   -2.6891    0.1421 H   0  0  0  0  0  0  0  0  0  0  0  0
    2.0405   -1.6586    1.6366 H   0  0  0  0  0  0  0  0  0  0  0  0
   -3.0171   -2.5165   -2.9592 H   0  0  0  0  0  0  0  0  0  0  0  0
   -1.9364   -2.2749    3.0270 H   0  0  0  0  0  0  0  0  0  0  0  0
   -2.3257    1.5753   -4.4071 H   0  0  0  0  0  0  0  0  0  0  0  0
   -1.9103   -0.0088   -3.8501 H   0  0  0  0  0  0  0  0  0  0  0  0
    4.2058   -1.5895   -2.4755 H   0  0  0  0  0  0  0  0  0  0  0  0
    3.8302   -0.2231   -3.4467 H   0  0  0  0  0  0  0  0  0  0  0  0
   -3.4608    0.9179   -2.2500 H   0  0  0  0  0  0  0  0  0  0  0  0
    3.8908    1.2808   -1.6067 H   0  0  0  0  0  0  0  0  0  0  0  0
   -1.5886    3.7320   -4.7696 H   0  0  0  0  0  0  0  0  0  0  0  0
    3.5378   -3.5089   -1.7190 H   0  0  0  0  0  0  0  0  0  0  0  0
    3.2708    3.7580   -4.0125 H   0  0  0  0  0  0  0  0  0  0  0  0
   -1.2790   -3.7334   -2.6048 H   0  0  0  0  0  0  0  0  0  0  0  0
   -0.2800    5.7127   -5.2668 H   0  0  0  0  0  0  0  0  0  0  0  0
    2.3490   -5.5975   -1.4662 H   0  0  0  0  0  0  0  0  0  0  0  0
   -3.6375    3.0353   -1.4472 H   0  0  0  0  0  0  0  0  0  0  0  0
   -2.7810    3.4890   -2.9304 H   0  0  0  0  0  0  0  0  0  0  0  0
    5.8728    0.8712   -0.4090 H   0  0  0  0  0  0  0  0  0  0  0  0
    6.1263   -0.2284   -1.8075 H   0  0  0  0  0  0  0  0  0  0  0  0
   -0.6974    2.0784    0.4639 H   0  0  0  0  0  0  0  0  0  0  0  0
    0.1756    2.0032   -1.1202 H   0  0  0  0  0  0  0  0  0  0  0  0
    3.9856   -1.1727    1.7045 H   0  0  0  0  0  0  0  0  0  0  0  0
    3.4195   -2.1239    0.2881 H   0  0  0  0  0  0  0  0  0  0  0  0
   -1.9449    3.9242   -0.2129 H   0  0  0  0  0  0  0  0  0  0  0  0
    6.1603   -1.0547    0.8885 H   0  0  0  0  0  0  0  0  0  0  0  0
   -3.3093   -1.0428   -1.5707 H   0  0  0  0  0  0  0  0  0  0  0  0
    0.9410    1.1034    2.0012 H   0  0  0  0  0  0  0  0  0  0  0  0
   -4.5484   -1.5383    0.6931 H   0  0  0  0  0  0  0  0  0  0  0  0
   -3.1605   -0.8146    1.5430 H   0  0  0  0  0  0  0  0  0  0  0  0
    3.7507    0.3906    3.0720 H   0  0  0  0  0  0  0  0  0  0  0  0
    3.0272    2.0138    2.9324 H   0  0  0  0  0  0  0  0  0  0  0  0
   -4.9166   -2.6414   -1.2212 H   0  0  0  0  0  0  0  0  0  0  0  0
    0.3020   -3.2094    3.5900 H   0  0  0  0  0  0  0  0  0  0  0  0
   -5.1183    0.7650    1.3306 H   0  0  0  0  0  0  0  0  0  0  0  0
   -3.6736    1.4269    0.5145 H   0  0  0  0  0  0  0  0  0  0  0  0
   -5.0075    0.6833   -0.4585 H   0  0  0  0  0  0  0  0  0  0  0  0
    2.8258    1.1717    5.2668 H   0  0  0  0  0  0  0  0  0  0  0  0
    1.1873    1.3326    4.5475 H   0  0  0  0  0  0  0  0  0  0  0  0
    1.9537   -0.2942    4.7119 H   0  0  0  0  0  0  0  0  0  0  0  0
   -5.4766   -5.0344   -0.6316 H   0  0  0  0  0  0  0  0  0  0  0  0
   -6.1603   -4.5399   -2.2068 H   0  0  0  0  0  0  0  0  0  0  0  0
   -4.6951   -5.5786   -2.1627 H   0  0  0  0  0  0  0  0  0  0  0  0
    1.8552   -3.5539    1.6554 H   0  0  0  0  0  0  0  0  0  0  0  0
    0.4940   -4.6781    1.4713 H   0  0  0  0  0  0  0  0  0  0  0  0
    0.5312   -3.1780    0.4902 H   0  0  0  0  0  0  0  0  0  0  0  0
   -4.4331   -2.2392   -4.8260 H   0  0  0  0  0  0  0  0  0  0  0  0
   -5.7656   -3.1084   -3.9839 H   0  0  0  0  0  0  0  0  0  0  0  0
   -5.1796   -1.5038   -3.3649 H   0  0  0  0  0  0  0  0  0  0  0  0
   -3.0819   -4.3250    2.7123 H   0  0  0  0  0  0  0  0  0  0  0  0
   -1.5539   -5.1371    2.2293 H   0  0  0  0  0  0  0  0  0  0  0  0
   -1.7580   -4.5078    3.9186 H   0  0  0  0  0  0  0  0  0  0  0  0
  1 33  1  0      
  2 34  1  0      
  3 39  2  0      
  4 40  2  0      
 43  5  1  0      
  5 59  1  0      
 44  6  1  0      
  6 60  1  0      
  7 49  2  0      
  8 50  2  0      
  9 17  1  0      
 23  9  1  0      
  9 61  1  0      
 10 18  1  0      
 24 10  1  0      
 10 62  1  0      
 11 27  1  0      
 11 39  1  0      
 11 41  1  0      
 12 28  1  0      
 12 40  1  0      
 12 42  1  0      
 13 45  1  0      
 13 49  1  0      
 13 63  1  0      
 14 46  1  0      
 14 50  1  0      
 14 64  1  0      
 15 51  1  0      
 15 57  1  0      
 15 65  1  0      
 16 52  1  0      
 16 58  1  0      
 16 66  1  0      
 17 18  1  0      
 17 19  2  0      
 18 20  2  0      
 19 21  1  0      
 19 25  1  0      
 20 22  1  0      
 20 26  1  0      
 23 21  2  0      
 21 29  1  0      
 24 22  2  0      
 22 30  1  0      
 31 23  1  0      
 32 24  1  0      
 27 25  1  0      
 25 67  1  0      
 25 68  1  0      
 28 26  1  0      
 26 69  1  0      
 26 70  1  0      
 27 37  1  0      
 27 71  1  0      
 28 38  1  0      
 28 72  1  0      
 35 29  2  0      
 29 73  1  0      
 36 30  2  0      
 30 74  1  0      
 33 31  2  0      
 31 75  1  0      
 34 32  2  0      
 32 76  1  0      
 35 33  1  0      
 36 34  1  0      
 35 77  1  0      
 36 78  1  0      
 37 43  1  0      
 37 79  1  0      
 37 80  1  0      
 38 44  1  0      
 38 81  1  0      
 38 82  1  0      
 39 45  1  0      
 40 46  1  0      
 43 41  1  0      
 41 83  1  0      
 41 84  1  0      
 44 42  1  0      
 42 85  1  0      
 42 86  1  0      
 43 87  1  0      
 44 88  1  0      
 45 47  1  0      
 45 89  1  0      
 46 48  1  0      
 46 90  1  0      
 47 53  1  0      
 47 91  1  0      
 47 92  1  0      
 48 54  1  0      
 48 93  1  0      
 48 94  1  0      
 49 51  1  0      
 50 52  1  0      
 51 55  1  0      
 51 95  1  0      
 52 56  1  0      
 52 96  1  0      
 53 97  1  0      
 53 98  1  0      
 53 99  1  0      
 54100  1  0      
 54101  1  0      
 54102  1  0      
 55103  1  0      
 55104  1  0      
 55105  1  0      
 56106  1  0      
 56107  1  0      
 56108  1  0      
 57109  1  0      
 57110  1  0      
 57111  1  0      
 58112  1  0      
 58113  1  0      
 58114  1  0      
M  END
