
  Chem3D Core 15.003291616503D

  0  0  0     0  0              0 V3000
M  V30 BEGIN CTAB
M  V30 COUNTS 84 87 0 0 0
M  V30 BEGIN ATOM
M  V30 1 S -4.437450 -4.138097 1.810725 0
M  V30 2 S -2.664769 -2.128064 0.670276 0
M  V30 3 O 0.181428 -6.477863 1.319384 0
M  V30 4 O 3.887741 -3.406771 -3.292661 0
M  V30 5 O -1.294587 -7.212471 -2.167053 0
M  V30 6 O -0.228298 -1.179033 -0.899793 0
M  V30 7 N 3.560711 4.601917 -1.114216 0
M  V30 8 N 0.789131 -6.110460 -0.791640 0
M  V30 9 N 2.991025 -4.477520 -1.497188 0
M  V30 10 N -1.132361 -0.163813 0.884523 0
M  V30 11 N -2.272865 -1.003300 2.638678 0
M  V30 12 C 4.317381 6.618765 0.195786 0
M  V30 13 C 4.342994 5.845279 -1.155586 0
M  V30 14 C 2.900445 7.042911 0.630667 0
M  V30 15 C 4.905414 5.720323 1.310552 0
M  V30 16 C 5.193302 7.889280 0.110697 0
M  V30 17 C 4.054916 6.687204 -2.410944 0
M  V30 18 C 2.159075 -6.589783 -0.624746 0
M  V30 19 C 0.664092 -5.171877 -1.910388 0
M  V30 20 C 3.093968 -5.399420 -0.365758 0
M  V30 21 C 1.625148 -3.988714 -1.681393 0
M  V30 22 C 2.182892 4.649498 -1.600455 0
M  V30 23 C 1.491932 3.358536 -1.224368 0
M  V30 24 C -0.174421 -6.292388 0.176831 0
M  V30 25 C 4.027158 -4.133532 -2.338607 0
M  V30 26 C -1.489016 -6.058165 -0.111539 0
M  V30 27 C 1.708616 2.234271 -1.925933 0
M  V30 28 C 0.646072 3.294694 -0.183388 0
M  V30 29 C 5.393312 -4.721748 -2.015440 0
M  V30 30 C -2.038164 -6.465059 -1.280686 0
M  V30 31 C -2.237344 -5.413755 0.802383 0
M  V30 32 C 1.095709 1.085346 -1.599901 0
M  V30 33 C 0.032250 2.146469 0.144148 0
M  V30 34 C 0.243872 1.014822 -0.557274 0
M  V30 35 C -3.522824 -5.114630 0.563949 0
M  V30 36 C -3.345128 -6.182786 -1.463875 0
M  V30 37 C -4.100102 -5.498758 -0.586036 0
M  V30 38 C -0.369390 -0.167539 -0.252267 0
M  V30 39 C -5.547810 -5.185064 -0.896967 0
M  V30 40 C -1.951448 -7.970782 -3.155397 0
M  V30 41 C -3.370564 -2.674477 1.828172 0
M  V30 42 C -1.929405 -1.109032 1.423626 0
M  V30 43 C -3.088044 -1.929738 2.904281 0
M  V30 44 H 4.058109 3.873708 -1.686033 0
M  V30 45 H -1.076919 0.632581 1.499062 0
M  V30 46 H 5.404281 5.503001 -1.276679 0
M  V30 47 H 2.932304 7.663425 1.554713 0
M  V30 48 H 2.392177 7.650657 -0.150050 0
M  V30 49 H 2.260540 6.165294 0.869634 0
M  V30 50 H 4.926912 6.247705 2.290994 0
M  V30 51 H 5.950456 5.413324 1.079468 0
M  V30 52 H 4.307472 4.793134 1.456745 0
M  V30 53 H 6.220825 7.652713 -0.247133 0
M  V30 54 H 4.755121 8.650506 -0.572210 0
M  V30 55 H 5.296168 8.381743 1.104054 0
M  V30 56 H 4.822070 7.477803 -2.567840 0
M  V30 57 H 4.078832 6.058869 -3.330551 0
M  V30 58 H 3.064528 7.190824 -2.363394 0
M  V30 59 H 2.242230 -7.344562 0.190002 0
M  V30 60 H 2.476631 -7.119611 -1.553967 0
M  V30 61 H -0.359217 -4.744376 -2.011026 0
M  V30 62 H 0.918342 -5.683741 -2.868216 0
M  V30 63 H 2.795481 -4.874518 0.571857 0
M  V30 64 H 4.122338 -5.778263 -0.186949 0
M  V30 65 H 1.536909 -3.270724 -2.527756 0
M  V30 66 H 1.317889 -3.426270 -0.768127 0
M  V30 67 H 1.625484 5.519096 -1.191403 0
M  V30 68 H 2.168282 4.753393 -2.709562 0
M  V30 69 H 2.401510 2.254619 -2.784069 0
M  V30 70 H 0.447910 4.201055 0.413386 0
M  V30 71 H 6.154578 -4.366700 -2.746620 0
M  V30 72 H 5.742980 -4.395511 -1.010036 0
M  V30 73 H 5.377959 -5.832712 -2.088324 0
M  V30 74 H -1.791344 -5.073233 1.752340 0
M  V30 75 H 1.326416 0.206588 -2.225517 0
M  V30 76 H -0.651546 2.197196 1.005937 0
M  V30 77 H -3.846668 -6.511448 -2.386494 0
M  V30 78 H -5.878268 -5.591175 -1.878704 0
M  V30 79 H -6.220825 -5.624551 -0.126178 0
M  V30 80 H -5.709559 -4.083707 -0.935431 0
M  V30 81 H -1.184342 -8.592962 -3.668927 0
M  V30 82 H -2.698560 -8.650506 -2.688241 0
M  V30 83 H -2.411864 -7.303513 -3.917339 0
M  V30 84 H -3.485171 -2.081907 3.917339 0
M  V30 END ATOM
M  V30 BEGIN BOND
M  V30 1 1 1 35
M  V30 2 1 1 41
M  V30 3 1 41 2
M  V30 4 1 2 42
M  V30 5 2 3 24
M  V30 6 2 4 25
M  V30 7 1 5 30
M  V30 8 1 5 40
M  V30 9 2 6 38
M  V30 10 1 7 13
M  V30 11 1 7 22
M  V30 12 1 7 44
M  V30 13 1 8 18
M  V30 14 1 8 19
M  V30 15 1 8 24
M  V30 16 1 20 9
M  V30 17 1 9 21
M  V30 18 1 9 25
M  V30 19 1 10 38
M  V30 20 1 10 42
M  V30 21 1 10 45
M  V30 22 2 42 11
M  V30 23 1 43 11
M  V30 24 1 12 13
M  V30 25 1 12 14
M  V30 26 1 12 15
M  V30 27 1 12 16
M  V30 28 1 13 17
M  V30 29 1 13 46
M  V30 30 1 14 47
M  V30 31 1 14 48
M  V30 32 1 14 49
M  V30 33 1 15 50
M  V30 34 1 15 51
M  V30 35 1 15 52
M  V30 36 1 16 53
M  V30 37 1 16 54
M  V30 38 1 16 55
M  V30 39 1 17 56
M  V30 40 1 17 57
M  V30 41 1 17 58
M  V30 42 1 18 20
M  V30 43 1 18 59
M  V30 44 1 18 60
M  V30 45 1 21 19
M  V30 46 1 19 61
M  V30 47 1 19 62
M  V30 48 1 20 63
M  V30 49 1 20 64
M  V30 50 1 21 65
M  V30 51 1 21 66
M  V30 52 1 22 23
M  V30 53 1 22 67
M  V30 54 1 22 68
M  V30 55 1 23 27
M  V30 56 2 23 28
M  V30 57 1 24 26
M  V30 58 1 25 29
M  V30 59 1 26 30
M  V30 60 2 26 31
M  V30 61 2 27 32
M  V30 62 1 27 69
M  V30 63 1 33 28
M  V30 64 1 28 70
M  V30 65 1 29 71
M  V30 66 1 29 72
M  V30 67 1 29 73
M  V30 68 2 30 36
M  V30 69 1 35 31
M  V30 70 1 31 74
M  V30 71 1 32 34
M  V30 72 1 32 75
M  V30 73 2 34 33
M  V30 74 1 33 76
M  V30 75 1 34 38
M  V30 76 2 37 35
M  V30 77 1 36 37
M  V30 78 1 36 77
M  V30 79 1 37 39
M  V30 80 1 39 78
M  V30 81 1 39 79
M  V30 82 1 39 80
M  V30 83 1 40 81
M  V30 84 1 40 82
M  V30 85 1 40 83
M  V30 86 2 43 41
M  V30 87 1 43 84
M  V30 END BOND
M  V30 END CTAB
M  END
