
  Chem3D Core 14.008141513373D

 53 54  0  0  0  0  0  0  0  0999 V2000
    0.1425    0.9201    1.7642 O   0  0  0  0  0  0  0  0  0  0  0  0
   -4.3779    0.8375    0.2836 O   0  0  0  0  0  0  0  0  0  0  0  0
    3.6552   -2.6269   -0.6178 O   0  0  0  0  0  0  0  0  0  0  0  0
    1.5184   -1.6881   -2.2478 O   0  0  0  0  0  0  0  0  0  0  0  0
   -2.3961    1.3733    1.1911 N   0  0  0  0  0  0  0  0  0  0  0  0
    0.6589   -0.0850   -0.1984 N   0  0  0  0  0  0  0  0  0  0  0  0
   -3.5826    2.3802    3.2241 N   0  0  0  0  0  0  0  0  0  0  0  0
   -6.2316    2.4083    3.4920 N   0  0  0  0  0  0  0  0  0  0  0  0
   -1.5765    0.8360    0.0979 C   0  0  0  0  0  0  0  0  0  0  0  0
   -0.1817    0.5725    0.6554 C   0  0  0  0  0  0  0  0  0  0  0  0
   -3.7619    1.3287    1.1996 C   0  0  0  0  0  0  0  0  0  0  0  0
   -4.3173    1.8817    2.3165 C   0  0  0  0  0  0  0  0  0  0  0  0
   -1.5320    1.8099   -1.0936 C   0  0  0  0  0  0  0  0  0  0  0  0
    2.0538   -0.4051    0.1418 C   0  0  0  0  0  0  0  0  0  0  0  0
   -0.7418    1.2788   -2.2723 C   0  0  0  0  0  0  0  0  0  0  0  0
   -5.6572    1.9102    2.4788 C   0  0  0  0  0  0  0  0  0  0  0  0
    2.9639    0.8193   -0.0382 C   0  0  0  0  0  0  0  0  0  0  0  0
    0.4506    1.8021   -2.6084 C   0  0  0  0  0  0  0  0  0  0  0  0
   -1.2109    0.2524   -3.0037 C   0  0  0  0  0  0  0  0  0  0  0  0
   -4.1410    2.8811    4.2420 C   0  0  0  0  0  0  0  0  0  0  0  0
   -5.4754    2.8966    4.3798 C   0  0  0  0  0  0  0  0  0  0  0  0
    4.4609    0.5846    0.2424 C   0  0  0  0  0  0  0  0  0  0  0  0
    1.1415    1.3363   -3.6602 C   0  0  0  0  0  0  0  0  0  0  0  0
   -0.5286   -0.2163   -4.0597 C   0  0  0  0  0  0  0  0  0  0  0  0
    0.6448    0.3357   -4.4022 C   0  0  0  0  0  0  0  0  0  0  0  0
    4.7228    0.1149    1.6826 C   0  0  0  0  0  0  0  0  0  0  0  0
    5.2562    1.8727   -0.0399 C   0  0  0  0  0  0  0  0  0  0  0  0
    2.4413   -1.5515   -0.8973 B   0  0  0  0  0  0  0  0  0  0  0  0
    3.6555   -3.3357   -1.2365 H   0  0  0  0  0  0  0  0  0  0  0  0
    1.3477   -0.8631   -2.6704 H   0  0  0  0  0  0  0  0  0  0  0  0
   -1.8999    1.7880    1.9809 H   0  0  0  0  0  0  0  0  0  0  0  0
    0.3194   -0.3062   -1.1380 H   0  0  0  0  0  0  0  0  0  0  0  0
   -1.9807   -0.1580   -0.2088 H   0  0  0  0  0  0  0  0  0  0  0  0
   -2.5675    2.0278   -1.4460 H   0  0  0  0  0  0  0  0  0  0  0  0
   -1.1167    2.7843   -0.7460 H   0  0  0  0  0  0  0  0  0  0  0  0
    2.1043   -0.8245    1.1714 H   0  0  0  0  0  0  0  0  0  0  0  0
   -6.3488    1.4941    1.7271 H   0  0  0  0  0  0  0  0  0  0  0  0
    2.8510    1.1811   -1.0878 H   0  0  0  0  0  0  0  0  0  0  0  0
    2.6015    1.6401    0.6245 H   0  0  0  0  0  0  0  0  0  0  0  0
    0.8727    2.6324   -2.0184 H   0  0  0  0  0  0  0  0  0  0  0  0
   -2.1786   -0.2069   -2.7425 H   0  0  0  0  0  0  0  0  0  0  0  0
   -3.4859    3.3085    5.0188 H   0  0  0  0  0  0  0  0  0  0  0  0
   -5.9528    3.3357    5.2709 H   0  0  0  0  0  0  0  0  0  0  0  0
    4.8396   -0.2002   -0.4587 H   0  0  0  0  0  0  0  0  0  0  0  0
    2.1158    1.7826   -3.9207 H   0  0  0  0  0  0  0  0  0  0  0  0
   -0.9356   -1.0531   -4.6517 H   0  0  0  0  0  0  0  0  0  0  0  0
    1.2068   -0.0453   -5.2709 H   0  0  0  0  0  0  0  0  0  0  0  0
    4.3034    0.8346    2.4216 H   0  0  0  0  0  0  0  0  0  0  0  0
    4.2761   -0.8846    1.8812 H   0  0  0  0  0  0  0  0  0  0  0  0
    5.8146    0.0196    1.8815 H   0  0  0  0  0  0  0  0  0  0  0  0
    4.9372    2.6987    0.6356 H   0  0  0  0  0  0  0  0  0  0  0  0
    6.3488    1.7149    0.1092 H   0  0  0  0  0  0  0  0  0  0  0  0
    5.1127    2.2161   -1.0898 H   0  0  0  0  0  0  0  0  0  0  0  0
  1 10  2  0      
  2 11  2  0      
  3 28  1  0      
 29  3  1  0      
  4 28  1  0      
 30  4  1  0      
  5  9  1  0      
  5 11  1  0      
 31  5  1  0      
  6 10  1  0      
  6 14  1  0      
 32  6  1  0      
 12  7  2  0      
  7 20  1  0      
  8 16  2  0      
 21  8  1  0      
  9 10  1  0      
  9 13  1  0      
 33  9  1  0      
 11 12  1  0      
 12 16  1  0      
 13 15  1  0      
 34 13  1  0      
 35 13  1  0      
 14 17  1  0      
 14 28  1  0      
 36 14  1  0      
 15 18  1  0      
 15 19  2  0      
 37 16  1  0      
 17 22  1  0      
 38 17  1  0      
 39 17  1  0      
 18 23  2  0      
 40 18  1  0      
 24 19  1  0      
 41 19  1  0      
 20 21  2  0      
 42 20  1  0      
 43 21  1  0      
 22 26  1  0      
 22 27  1  0      
 44 22  1  0      
 23 25  1  0      
 45 23  1  0      
 25 24  2  0      
 46 24  1  0      
 47 25  1  0      
 48 26  1  0      
 49 26  1  0      
 50 26  1  0      
 51 27  1  0      
 52 27  1  0      
 53 27  1  0      
M  END
