Fragment
  Chem3D Core 15.011231513513D

  0  0  0     0  0              0 V3000
M  V30 BEGIN CTAB
M  V30 COUNTS 50 53 0 0 0
M  V30 BEGIN ATOM
M  V30 1 F 3.588276 -0.632806 4.138675 0
M  V30 2 O -3.976349 0.672573 -3.139298 0
M  V30 3 O 3.181903 4.988122 0.138963 0
M  V30 4 N -1.693748 0.465342 -1.577778 0
M  V30 5 N 1.647761 2.679641 0.236417 0
M  V30 6 N 0.010271 1.492192 -0.596252 0
M  V30 7 N 1.296925 0.560464 0.903260 0
M  V30 8 N 0.753782 -3.900687 2.096881 0
M  V30 9 N 1.959339 -4.948591 3.630291 0
M  V30 10 C -1.993992 1.745087 -2.273994 0
M  V30 11 C -2.571883 -0.719553 -1.740589 0
M  V30 12 C 1.255232 3.781415 -0.680883 0
M  V30 13 C 2.852309 2.786414 1.086293 0
M  V30 14 C -0.709413 0.463479 -0.756781 0
M  V30 15 C -2.942274 1.567293 -3.457059 0
M  V30 16 C -3.475238 -0.627796 -2.970364 0
M  V30 17 C 0.995029 1.577902 0.199662 0
M  V30 18 C 1.840768 5.125602 -0.253592 0
M  V30 19 C 3.283598 4.233253 1.318382 0
M  V30 20 C -0.354367 -0.587983 0.005672 0
M  V30 21 C 0.688130 -0.552711 0.863715 0
M  V30 22 C 1.077413 -1.609921 1.637209 0
M  V30 23 C 2.050420 -1.608180 2.591428 0
M  V30 24 C 0.498138 -2.825443 1.483122 0
M  V30 25 C 2.310752 -2.764406 3.238173 0
M  V30 26 C 2.835609 -0.396534 3.074219 0
M  V30 27 C 1.654946 -3.903868 2.978401 0
M  V30 28 F 2.021152 0.584590 3.431835 0
M  V30 29 F 3.667055 0.031927 2.137066 0
M  V30 30 H 2.712827 -4.924228 4.360343 0
M  V30 31 H 1.455690 -5.849956 3.441966 0
M  V30 32 H -1.075867 2.238166 -2.674562 0
M  V30 33 H -2.472933 2.434954 -1.537034 0
M  V30 34 H -1.987082 -1.660849 -1.871812 0
M  V30 35 H -3.215835 -0.805466 -0.831936 0
M  V30 36 H 0.149578 3.924416 -0.736980 0
M  V30 37 H 1.633988 3.533552 -1.702109 0
M  V30 38 H 2.685405 2.351226 2.095420 0
M  V30 39 H 3.683621 2.238635 0.580844 0
M  V30 40 H -2.401300 1.202348 -4.360343 0
M  V30 41 H -3.407479 2.542738 -3.731886 0
M  V30 42 H -4.345229 -1.317412 -2.864952 0
M  V30 43 H -2.934795 -0.934419 -3.895754 0
M  V30 44 H 1.255809 5.576026 0.581172 0
M  V30 45 H 1.806383 5.849956 -1.100722 0
M  V30 46 H 4.345229 4.271277 1.657385 0
M  V30 47 H 2.673147 4.715893 2.116297 0
M  V30 48 H -0.966152 -1.487398 -0.084091 0
M  V30 49 H -0.291318 -3.043571 0.749420 0
M  V30 50 H 3.084234 -2.805792 4.022534 0
M  V30 END ATOM
M  V30 BEGIN BOND
M  V30 1 1 1 26
M  V30 2 1 15 2
M  V30 3 1 2 16
M  V30 4 1 18 3
M  V30 5 1 3 19
M  V30 6 1 4 10
M  V30 7 1 4 11
M  V30 8 1 4 14
M  V30 9 1 5 12
M  V30 10 1 5 13
M  V30 11 1 5 17
M  V30 12 1 14 6
M  V30 13 2 6 17
M  V30 14 1 17 7
M  V30 15 2 21 7
M  V30 16 2 24 8
M  V30 17 1 8 27
M  V30 18 1 9 27
M  V30 19 1 9 30
M  V30 20 1 9 31
M  V30 21 1 10 15
M  V30 22 1 10 32
M  V30 23 1 10 33
M  V30 24 1 16 11
M  V30 25 1 11 34
M  V30 26 1 11 35
M  V30 27 1 12 18
M  V30 28 1 12 36
M  V30 29 1 12 37
M  V30 30 1 19 13
M  V30 31 1 13 38
M  V30 32 1 13 39
M  V30 33 2 20 14
M  V30 34 1 15 40
M  V30 35 1 15 41
M  V30 36 1 16 42
M  V30 37 1 16 43
M  V30 38 1 18 44
M  V30 39 1 18 45
M  V30 40 1 19 46
M  V30 41 1 19 47
M  V30 42 1 21 20
M  V30 43 1 20 48
M  V30 44 1 21 22
M  V30 45 2 23 22
M  V30 46 1 22 24
M  V30 47 1 25 23
M  V30 48 1 23 26
M  V30 49 1 24 49
M  V30 50 2 25 27
M  V30 51 1 25 50
M  V30 52 1 26 28
M  V30 53 1 26 29
M  V30 END BOND
M  V30 END CTAB
M  END
$$$$
