
  Chem3D Core 15.003181611583D

184191  0  0  0  0  0  0  0  0999 V2000
    7.6363    6.7577    4.1657 C   0  0  0  0  0  0  0  0  0  0  0  0
    6.2667    6.6423    4.8643 C   0  0  0  0  0  0  0  0  0  0  0  0
    5.3175    8.2619    3.1382 C   0  0  0  0  0  0  0  0  0  0  0  0
    5.4494    7.9272    4.6317 C   0  0  0  0  0  0  0  0  0  0  0  0
    6.6933    8.3740    2.4704 C   0  0  0  0  0  0  0  0  0  0  0  0
    7.4874    7.0775    2.6714 C   0  0  0  0  0  0  0  0  0  0  0  0
    2.5158    5.9162    3.5988 O   0  0  0  0  0  0  0  0  0  0  0  0
    4.6005    7.2190    7.5805 O   0  0  0  0  0  0  0  0  0  0  0  0
    8.1478    5.6606    8.5329 O   0  0  0  0  0  0  0  0  0  0  0  0
    6.0310    3.1376    4.7433 O   0  0  0  0  0  0  0  0  0  0  0  0
    5.0781    6.2128    7.1093 C   0  0  0  0  0  0  0  0  0  0  0  0
    6.4255    6.2826    6.3625 C   0  0  0  0  0  0  0  0  0  0  0  0
    7.2951    5.1078    6.5113 N   0  0  0  0  0  0  0  0  0  0  0  0
    8.1217    4.9175    7.5846 C   0  0  0  0  0  0  0  0  0  0  0  0
    8.9816    3.6616    7.5049 C   0  0  0  0  0  0  0  0  0  0  0  0
    9.5361    3.4194    6.0920 C   0  0  0  0  0  0  0  0  0  0  0  0
    3.7842   -0.8040    3.5667 C   0  0  0  0  0  0  0  0  0  0  0  0
    3.1643    0.3649    3.3432 C   0  0  0  0  0  0  0  0  0  0  0  0
    5.0894   -0.9352    3.2883 C   0  0  0  0  0  0  0  0  0  0  0  0
    3.8272    1.4263    2.8457 C   0  0  0  0  0  0  0  0  0  0  0  0
    5.7627    0.1066    2.7790 C   0  0  0  0  0  0  0  0  0  0  0  0
    5.1323    1.2702    2.5572 C   0  0  0  0  0  0  0  0  0  0  0  0
    0.4922    3.2214   -0.3804 C   0  0  0  0  0  0  0  0  0  0  0  0
    1.2556    2.6474   -1.5411 C   0  0  0  0  0  0  0  0  0  0  0  0
    1.1535    3.3506    0.9609 C   0  0  0  0  0  0  0  0  0  0  0  0
    2.6519    2.1039   -1.3506 C   0  0  0  0  0  0  0  0  0  0  0  0
    2.5544    2.8025    1.1746 C   0  0  0  0  0  0  0  0  0  0  0  0
    3.3242    2.2328   -0.0099 C   0  0  0  0  0  0  0  0  0  0  0  0
    3.1012    2.7372    2.5956 C   0  0  0  0  0  0  0  0  0  0  0  0
    3.8406    3.9888    3.0989 C   0  0  0  0  0  0  0  0  0  0  0  0
    3.9344    3.9748    4.5640 N   0  0  0  0  0  0  0  0  0  0  0  0
    3.0112    5.2193    2.7496 C   0  0  0  0  0  0  0  0  0  0  0  0
    5.0270    3.5544    5.2638 C   0  0  0  0  0  0  0  0  0  0  0  0
    8.1987    2.5399    8.0258 N   0  0  0  0  0  0  0  0  0  0  0  0
    8.8701    1.2435    8.0066 C   0  0  0  0  0  0  0  0  0  0  0  0
    4.8914    3.6886    6.7745 C   0  0  0  0  0  0  0  0  0  0  0  0
    3.0894    4.8924    7.7879 C   0  0  0  0  0  0  0  0  0  0  0  0
    4.4104    5.0076    7.1803 N   0  0  0  0  0  0  0  0  0  0  0  0
    3.8621    2.6792    7.3214 C   0  0  0  0  0  0  0  0  0  0  0  0
    2.5708    3.4972    7.4164 C   0  0  0  0  0  0  0  0  0  0  0  0
   -5.9703   -7.3943   -5.4262 C   0  0  0  0  0  0  0  0  0  0  0  0
   -6.1516   -5.8719   -5.5639 C   0  0  0  0  0  0  0  0  0  0  0  0
   -6.1087   -6.0958   -8.0849 C   0  0  0  0  0  0  0  0  0  0  0  0
   -5.5072   -5.3738   -6.8681 C   0  0  0  0  0  0  0  0  0  0  0  0
   -5.9183   -7.6142   -7.9536 C   0  0  0  0  0  0  0  0  0  0  0  0
   -6.5359   -8.1354   -6.6482 C   0  0  0  0  0  0  0  0  0  0  0  0
   -1.6473   -4.7214    0.7484 O   0  0  0  0  0  0  0  0  0  0  0  0
   -5.0944   -6.2626   -2.2861 O   0  0  0  0  0  0  0  0  0  0  0  0
   -5.7150   -1.8395   -3.0904 O   0  0  0  0  0  0  0  0  0  0  0  0
   -2.8418   -2.6252   -3.6211 O   0  0  0  0  0  0  0  0  0  0  0  0
   -4.7669   -5.7011   -3.3038 C   0  0  0  0  0  0  0  0  0  0  0  0
   -5.8114   -5.1096   -4.2631 C   0  0  0  0  0  0  0  0  0  0  0  0
   -5.5214   -3.6650   -4.3626 N   0  0  0  0  0  0  0  0  0  0  0  0
   -6.2669   -2.7029   -3.7266 C   0  0  0  0  0  0  0  0  0  0  0  0
   -7.7861   -2.7733   -3.8953 C   0  0  0  0  0  0  0  0  0  0  0  0
   -8.1995   -2.7900   -5.3763 C   0  0  0  0  0  0  0  0  0  0  0  0
   -8.1079   -3.5787   -0.1648 C   0  0  0  0  0  0  0  0  0  0  0  0
   -6.8758   -4.0859   -0.0094 C   0  0  0  0  0  0  0  0  0  0  0  0
   -8.2892   -2.2508   -0.1552 C   0  0  0  0  0  0  0  0  0  0  0  0
   -5.8011   -3.2895    0.1478 C   0  0  0  0  0  0  0  0  0  0  0  0
   -7.2298   -1.4404   -0.0228 C   0  0  0  0  0  0  0  0  0  0  0  0
   -6.0011   -1.9581    0.1296 C   0  0  0  0  0  0  0  0  0  0  0  0
   -4.2690   -3.6737    4.1271 C   0  0  0  0  0  0  0  0  0  0  0  0
   -4.2490   -4.9635    4.4941 C   0  0  0  0  0  0  0  0  0  0  0  0
   -4.3302   -3.3454    2.8273 C   0  0  0  0  0  0  0  0  0  0  0  0
   -4.2942   -5.9183    3.5535 C   0  0  0  0  0  0  0  0  0  0  0  0
   -4.3684   -4.2906    1.8701 C   0  0  0  0  0  0  0  0  0  0  0  0
   -4.3555   -5.5804    2.2562 C   0  0  0  0  0  0  0  0  0  0  0  0
   -4.4382   -3.9210    0.3955 C   0  0  0  0  0  0  0  0  0  0  0  0
   -3.2257   -3.0913   -0.0789 C   0  0  0  0  0  0  0  0  0  0  0  0
   -3.3846   -2.6313   -1.4652 N   0  0  0  0  0  0  0  0  0  0  0  0
   -1.8317   -3.6457    0.2379 C   0  0  0  0  0  0  0  0  0  0  0  0
   -2.9145   -3.2461   -2.5900 C   0  0  0  0  0  0  0  0  0  0  0  0
   -8.3877   -1.6102   -3.2324 N   0  0  0  0  0  0  0  0  0  0  0  0
   -9.8420   -1.6558   -3.0951 C   0  0  0  0  0  0  0  0  0  0  0  0
   -2.6081   -4.7503   -2.5360 C   0  0  0  0  0  0  0  0  0  0  0  0
   -2.7916   -5.3609   -4.8357 C   0  0  0  0  0  0  0  0  0  0  0  0
   -3.4622   -5.3590   -3.5458 N   0  0  0  0  0  0  0  0  0  0  0  0
   -1.1888   -5.0840   -3.0146 C   0  0  0  0  0  0  0  0  0  0  0  0
   -1.3023   -5.0889   -4.5460 C   0  0  0  0  0  0  0  0  0  0  0  0
   -0.7511   -1.5477   -0.7059 C   0  0  0  0  0  0  0  0  0  0  0  0
    0.2979   -0.6645   -0.0074 C   0  0  0  0  0  0  0  0  0  0  0  0
    0.5101    0.6930   -0.7383 C   0  0  0  0  0  0  0  0  0  0  0  0
    1.5212    1.7421    0.0666 C   0  0  0  0  0  0  0  0  0  0  0  0
   -0.7471   -2.8748   -0.0787 N   0  0  0  0  0  0  0  0  0  0  0  0
    2.3084    3.7018   -0.4391 C   0  0  0  0  0  0  0  0  0  0  0  0
    3.3964    4.6915    0.3252 C   0  0  0  0  0  0  0  0  0  0  0  0
    2.8219    5.4761    1.4267 N   0  0  0  0  0  0  0  0  0  0  0  0
    8.2072    5.8043    4.2657 H   0  0  0  0  0  0  0  0  0  0  0  0
    8.2396    7.5559    4.6587 H   0  0  0  0  0  0  0  0  0  0  0  0
    5.7150    5.8146    4.3629 H   0  0  0  0  0  0  0  0  0  0  0  0
    4.7543    9.2172    3.0105 H   0  0  0  0  0  0  0  0  0  0  0  0
    4.7274    7.4654    2.6267 H   0  0  0  0  0  0  0  0  0  0  0  0
    5.9395    8.7788    5.1595 H   0  0  0  0  0  0  0  0  0  0  0  0
    4.4231    7.8174    5.0545 H   0  0  0  0  0  0  0  0  0  0  0  0
    7.2555    9.2310    2.9115 H   0  0  0  0  0  0  0  0  0  0  0  0
    6.5728    8.5824    1.3804 H   0  0  0  0  0  0  0  0  0  0  0  0
    8.4950    7.1735    2.2005 H   0  0  0  0  0  0  0  0  0  0  0  0
    6.9643    6.2346    2.1593 H   0  0  0  0  0  0  0  0  0  0  0  0
    6.9656    7.1569    6.8048 H   0  0  0  0  0  0  0  0  0  0  0  0
    7.2672    4.3831    5.7931 H   0  0  0  0  0  0  0  0  0  0  0  0
    9.8474    3.8245    8.1936 H   0  0  0  0  0  0  0  0  0  0  0  0
   10.3506    2.6603    6.0924 H   0  0  0  0  0  0  0  0  0  0  0  0
    9.9747    4.3539    5.6727 H   0  0  0  0  0  0  0  0  0  0  0  0
    8.7472    3.0664    5.3908 H   0  0  0  0  0  0  0  0  0  0  0  0
    3.2205   -1.6588    3.9768 H   0  0  0  0  0  0  0  0  0  0  0  0
    2.0888    0.4416    3.5747 H   0  0  0  0  0  0  0  0  0  0  0  0
    5.6027   -1.8941    3.4689 H   0  0  0  0  0  0  0  0  0  0  0  0
    6.8339    0.0042    2.5372 H   0  0  0  0  0  0  0  0  0  0  0  0
    5.7099    2.1025    2.1246 H   0  0  0  0  0  0  0  0  0  0  0  0
   -0.5410    3.5878   -0.5215 H   0  0  0  0  0  0  0  0  0  0  0  0
    0.7836    2.6116   -2.5414 H   0  0  0  0  0  0  0  0  0  0  0  0
    0.5751    3.7685    1.8050 H   0  0  0  0  0  0  0  0  0  0  0  0
    3.1938    1.6512   -2.2006 H   0  0  0  0  0  0  0  0  0  0  0  0
    4.3435    1.8257    0.1057 H   0  0  0  0  0  0  0  0  0  0  0  0
    2.1857    2.7013    3.2414 H   0  0  0  0  0  0  0  0  0  0  0  0
    4.8487    4.1345    2.6544 H   0  0  0  0  0  0  0  0  0  0  0  0
    3.1358    4.3666    5.0645 H   0  0  0  0  0  0  0  0  0  0  0  0
    7.9432    2.7579    9.0223 H   0  0  0  0  0  0  0  0  0  0  0  0
    8.2336    0.4936    8.5292 H   0  0  0  0  0  0  0  0  0  0  0  0
    9.0272    0.8800    6.9666 H   0  0  0  0  0  0  0  0  0  0  0  0
    9.8471    1.2952    8.5381 H   0  0  0  0  0  0  0  0  0  0  0  0
    5.8567    3.4466    7.2677 H   0  0  0  0  0  0  0  0  0  0  0  0
    3.1908    4.9884    8.8946 H   0  0  0  0  0  0  0  0  0  0  0  0
    2.3932    5.6782    7.4133 H   0  0  0  0  0  0  0  0  0  0  0  0
    4.1557    2.3550    8.3494 H   0  0  0  0  0  0  0  0  0  0  0  0
    3.7553    1.7678    6.6907 H   0  0  0  0  0  0  0  0  0  0  0  0
    2.0612    3.5220    6.4248 H   0  0  0  0  0  0  0  0  0  0  0  0
    1.8503    3.0898    8.1615 H   0  0  0  0  0  0  0  0  0  0  0  0
   -6.4851   -7.7593   -4.5055 H   0  0  0  0  0  0  0  0  0  0  0  0
   -4.8883   -7.6374   -5.3178 H   0  0  0  0  0  0  0  0  0  0  0  0
   -7.2520   -5.7185   -5.7221 H   0  0  0  0  0  0  0  0  0  0  0  0
   -5.6224   -5.7334   -9.0223 H   0  0  0  0  0  0  0  0  0  0  0  0
   -7.1952   -5.8566   -8.1693 H   0  0  0  0  0  0  0  0  0  0  0  0
   -4.4175   -5.5844   -6.8781 H   0  0  0  0  0  0  0  0  0  0  0  0
   -5.6369   -4.2724   -6.9800 H   0  0  0  0  0  0  0  0  0  0  0  0
   -4.8285   -7.8552   -7.9686 H   0  0  0  0  0  0  0  0  0  0  0  0
   -6.3810   -8.1325   -8.8272 H   0  0  0  0  0  0  0  0  0  0  0  0
   -6.3458   -9.2310   -6.5491 H   0  0  0  0  0  0  0  0  0  0  0  0
   -7.6432   -7.9999   -6.6854 H   0  0  0  0  0  0  0  0  0  0  0  0
   -6.7395   -5.2246   -3.6479 H   0  0  0  0  0  0  0  0  0  0  0  0
   -4.5514   -3.3915   -4.5319 H   0  0  0  0  0  0  0  0  0  0  0  0
   -8.1467   -3.6863   -3.3683 H   0  0  0  0  0  0  0  0  0  0  0  0
   -9.2795   -3.0249   -5.5053 H   0  0  0  0  0  0  0  0  0  0  0  0
   -7.6489   -3.5509   -5.9653 H   0  0  0  0  0  0  0  0  0  0  0  0
   -7.9976   -1.8049   -5.8555 H   0  0  0  0  0  0  0  0  0  0  0  0
   -8.9740   -4.2517   -0.2789 H   0  0  0  0  0  0  0  0  0  0  0  0
   -6.7561   -5.1821    0.0097 H   0  0  0  0  0  0  0  0  0  0  0  0
   -9.3017   -1.8274   -0.2559 H   0  0  0  0  0  0  0  0  0  0  0  0
   -7.3739   -0.3469   -0.0189 H   0  0  0  0  0  0  0  0  0  0  0  0
   -5.1681   -1.2525    0.2660 H   0  0  0  0  0  0  0  0  0  0  0  0
   -4.2371   -2.8831    4.8955 H   0  0  0  0  0  0  0  0  0  0  0  0
   -4.1992   -5.2368    5.5612 H   0  0  0  0  0  0  0  0  0  0  0  0
   -4.3512   -2.2777    2.5563 H   0  0  0  0  0  0  0  0  0  0  0  0
   -4.2813   -6.9812    3.8475 H   0  0  0  0  0  0  0  0  0  0  0  0
   -4.3926   -6.3846    1.5026 H   0  0  0  0  0  0  0  0  0  0  0  0
   -4.4131   -4.8572   -0.2081 H   0  0  0  0  0  0  0  0  0  0  0  0
   -3.2307   -2.1667    0.5475 H   0  0  0  0  0  0  0  0  0  0  0  0
   -3.9232   -1.7811   -1.6477 H   0  0  0  0  0  0  0  0  0  0  0  0
   -7.9527   -1.5086   -2.2807 H   0  0  0  0  0  0  0  0  0  0  0  0
  -10.1807   -0.7862   -2.4872 H   0  0  0  0  0  0  0  0  0  0  0  0
  -10.3506   -1.5868   -4.0820 H   0  0  0  0  0  0  0  0  0  0  0  0
  -10.1679   -2.5864   -2.5786 H   0  0  0  0  0  0  0  0  0  0  0  0
   -2.7891   -5.2038   -1.5421 H   0  0  0  0  0  0  0  0  0  0  0  0
   -2.9066   -6.3607   -5.3135 H   0  0  0  0  0  0  0  0  0  0  0  0
   -3.1946   -4.5624   -5.4963 H   0  0  0  0  0  0  0  0  0  0  0  0
   -0.9165   -6.1091   -2.6645 H   0  0  0  0  0  0  0  0  0  0  0  0
   -0.4239   -4.3717   -2.6320 H   0  0  0  0  0  0  0  0  0  0  0  0
   -0.9985   -4.0961   -4.9541 H   0  0  0  0  0  0  0  0  0  0  0  0
   -0.6326   -5.8507   -5.0077 H   0  0  0  0  0  0  0  0  0  0  0  0
   -1.7316   -1.0295   -0.6353 H   0  0  0  0  0  0  0  0  0  0  0  0
   -0.4952   -1.6740   -1.7835 H   0  0  0  0  0  0  0  0  0  0  0  0
    1.2626   -1.2264    0.0348 H   0  0  0  0  0  0  0  0  0  0  0  0
   -0.0378   -0.5059    1.0458 H   0  0  0  0  0  0  0  0  0  0  0  0
   -0.5263    1.0958   -0.8719 H   0  0  0  0  0  0  0  0  0  0  0  0
    0.8912    0.3654   -1.7401 H   0  0  0  0  0  0  0  0  0  0  0  0
    2.1433    0.7974    0.3281 H   0  0  0  0  0  0  0  0  0  0  0  0
    0.9133    1.4664    1.0166 H   0  0  0  0  0  0  0  0  0  0  0  0
    0.1515   -3.3139    0.1225 H   0  0  0  0  0  0  0  0  0  0  0  0
    1.6971    4.6712   -0.6456 H   0  0  0  0  0  0  0  0  0  0  0  0
    2.8510    3.9910   -1.4294 H   0  0  0  0  0  0  0  0  0  0  0  0
    3.7354    5.5060   -0.3707 H   0  0  0  0  0  0  0  0  0  0  0  0
    4.3960    4.2654    0.5610 H   0  0  0  0  0  0  0  0  0  0  0  0
    2.1932    6.2483    1.2112 H   0  0  0  0  0  0  0  0  0  0  0  0
  1  2  1  0      
  1  6  1  0      
  1 89  1  0      
  1 90  1  0      
  2  4  1  0      
 12  2  1  0      
  2 91  1  0      
  4  3  1  0      
  3  5  1  0      
  3 92  1  0      
  3 93  1  0      
  4 94  1  0      
  4 95  1  0      
  5  6  1  0      
  5 96  1  0      
  5 97  1  0      
  6 98  1  0      
  6 99  1  0      
  7 32  2  0      
  8 11  2  0      
  9 14  2  0      
 10 33  2  0      
 11 12  1  0      
 11 38  1  0      
 12 13  1  0      
 12100  1  0      
 13 14  1  0      
 13101  1  0      
 14 15  1  0      
 15 16  1  0      
 15 34  1  0      
 15102  1  0      
 16103  1  0      
 16104  1  0      
 16105  1  0      
 17 18  1  0      
 17 19  2  0      
 17106  1  0      
 18 20  2  0      
 18107  1  0      
 21 19  1  0      
 19108  1  0      
 20 22  1  0      
 20 29  1  0      
 22 21  2  0      
 21109  1  0      
 22110  1  0      
 23 24  1  0      
 23 25  2  0      
 23111  1  0      
 24 26  2  0      
 24112  1  0      
 27 25  1  0      
 25113  1  0      
 26 28  1  0      
 26114  1  0      
 28 27  2  0      
 27 29  1  0      
 28115  1  0      
 30 29  1  0      
 29116  1  0      
 30 31  1  0      
 30 32  1  0      
 30117  1  0      
 31 33  1  0      
 31118  1  0      
 32 88  1  0      
 36 33  1  0      
 34 35  1  0      
 34119  1  0      
 35120  1  0      
 35121  1  0      
 35122  1  0      
 38 36  1  0      
 36 39  1  0      
 36123  1  0      
 38 37  1  0      
 40 37  1  0      
 37124  1  0      
 37125  1  0      
 39 40  1  0      
 39126  1  0      
 39127  1  0      
 40128  1  0      
 40129  1  0      
 41 42  1  0      
 41 46  1  0      
 41130  1  0      
 41131  1  0      
 42 44  1  0      
 52 42  1  0      
 42132  1  0      
 44 43  1  0      
 43 45  1  0      
 43133  1  0      
 43134  1  0      
 44135  1  0      
 44136  1  0      
 45 46  1  0      
 45137  1  0      
 45138  1  0      
 46139  1  0      
 46140  1  0      
 47 72  2  0      
 48 51  2  0      
 49 54  2  0      
 50 73  2  0      
 51 52  1  0      
 51 78  1  0      
 52 53  1  0      
 52141  1  0      
 53 54  1  0      
 53142  1  0      
 54 55  1  0      
 55 56  1  0      
 55 74  1  0      
 55143  1  0      
 56144  1  0      
 56145  1  0      
 56146  1  0      
 57 58  1  0      
 57 59  2  0      
 57147  1  0      
 58 60  2  0      
 58148  1  0      
 61 59  1  0      
 59149  1  0      
 60 62  1  0      
 60 69  1  0      
 62 61  2  0      
 61150  1  0      
 62151  1  0      
 63 64  1  0      
 63 65  2  0      
 63152  1  0      
 64 66  2  0      
 64153  1  0      
 67 65  1  0      
 65154  1  0      
 66 68  1  0      
 66155  1  0      
 68 67  2  0      
 67 69  1  0      
 68156  1  0      
 70 69  1  0      
 69157  1  0      
 70 71  1  0      
 70 72  1  0      
 70158  1  0      
 71 73  1  0      
 71159  1  0      
 72 85  1  0      
 76 73  1  0      
 74 75  1  0      
 74160  1  0      
 75161  1  0      
 75162  1  0      
 75163  1  0      
 78 76  1  0      
 76 79  1  0      
 76164  1  0      
 78 77  1  0      
 80 77  1  0      
 77165  1  0      
 77166  1  0      
 79 80  1  0      
 79167  1  0      
 79168  1  0      
 80169  1  0      
 80170  1  0      
 81 82  1  0      
 81 85  1  0      
 81171  1  0      
 81172  1  0      
 82 83  1  0      
 82173  1  0      
 82174  1  0      
 83 84  1  0      
 83175  1  0      
 83176  1  0      
 84 86  1  0      
 84177  1  0      
 84178  1  0      
 85179  1  0      
 86 87  1  0      
 86180  1  0      
 86181  1  0      
 87 88  1  0      
 87182  1  0      
 87183  1  0      
 88184  1  0      
M  END
