
  Chem3D Core 15.008141514043D

 52 55  0  0  0  0  0  0  0  0999 V2000
   -0.9692    2.2352   -0.4471 O   0  0  0  0  0  0  0  0  0  0  0  0
    1.0619    0.3794   -0.0355 O   0  0  0  0  0  0  0  0  0  0  0  0
   -1.1441   -0.8454   -0.0190 O   0  5  0  0  0  0  0  0  0  0  0  0
   -1.2326    0.1735    1.5978 O   0  0  0  0  0  0  0  0  0  0  0  0
    6.7751   -4.3999    1.3814 O   0  0  0  0  0  0  0  0  0  0  0  0
    4.7422   -5.2458    1.4365 O   0  0  0  0  0  0  0  0  0  0  0  0
    3.2656    0.6010    0.0768 N   0  0  0  0  0  0  0  0  0  0  0  0
    4.0324    1.5694   -0.0765 N   0  0  0  0  0  0  0  0  0  0  0  0
   -1.2608    0.4619    0.2690 N   0  3  0  0  0  0  0  0  0  0  0  0
   -3.0553    1.6701   -0.3031 C   0  0  0  0  0  0  0  0  0  0  0  0
   -2.1328    2.5945   -0.6099 C   0  0  0  0  0  0  0  0  0  0  0  0
   -5.2621    0.9258   -0.0872 C   0  0  0  0  0  0  0  0  0  0  0  0
    2.1101    2.3687   -0.3587 C   0  0  0  0  0  0  0  0  0  0  0  0
   -4.7980   -0.2385    0.4087 C   0  0  0  0  0  0  0  0  0  0  0  0
   -2.5508    0.5102    0.1822 C   0  0  0  0  0  0  0  0  0  0  0  0
   -4.3749    1.8729   -0.4332 C   0  0  0  0  0  0  0  0  0  0  0  0
   -0.2069    3.1778   -0.6875 C   0  0  0  0  0  0  0  0  0  0  0  0
   -3.4702   -0.4179    0.5396 C   0  0  0  0  0  0  0  0  0  0  0  0
    3.4192    2.6406   -0.3376 C   0  0  0  0  0  0  0  0  0  0  0  0
    1.1341    3.2493   -0.6272 C   0  0  0  0  0  0  0  0  0  0  0  0
    2.0726    1.0408   -0.0855 C   0  0  0  0  0  0  0  0  0  0  0  0
   -2.2202    3.8624   -1.0231 C   0  0  0  0  0  0  0  0  0  0  0  0
   -0.9393    4.2460   -1.0616 C   0  0  0  0  0  0  0  0  0  0  0  0
    3.7281   -0.5681    0.3527 C   0  0  0  0  0  0  0  0  0  0  0  0
   -6.7441    1.1825   -0.2545 C   0  0  0  0  0  0  0  0  0  0  0  0
   -5.7522   -1.3349    0.8353 C   0  0  0  0  0  0  0  0  0  0  0  0
    4.1465    3.9307   -0.5666 C   0  0  0  0  0  0  0  0  0  0  0  0
    2.9985   -1.6866    0.5529 C   0  0  0  0  0  0  0  0  0  0  0  0
    5.0619   -0.7653    0.4730 C   0  0  0  0  0  0  0  0  0  0  0  0
    3.5378   -2.8837    0.8415 C   0  0  0  0  0  0  0  0  0  0  0  0
    5.6205   -1.9518    0.7639 C   0  0  0  0  0  0  0  0  0  0  0  0
    4.8670   -3.0468    0.9563 C   0  0  0  0  0  0  0  0  0  0  0  0
    5.4285   -4.2561    1.2576 C   0  0  0  0  0  0  0  0  0  0  0  0
    7.2372   -3.5790    1.1582 H   0  0  0  0  0  0  0  0  0  0  0  0
   -4.7495    2.8307   -0.8276 H   0  0  0  0  0  0  0  0  0  0  0  0
   -3.1547   -1.3831    0.9726 H   0  0  0  0  0  0  0  0  0  0  0  0
    1.5259    4.2576   -0.8622 H   0  0  0  0  0  0  0  0  0  0  0  0
   -3.1069    4.4653   -1.2467 H   0  0  0  0  0  0  0  0  0  0  0  0
   -0.5832    5.2458   -1.3432 H   0  0  0  0  0  0  0  0  0  0  0  0
   -7.2312    0.3619   -0.8276 H   0  0  0  0  0  0  0  0  0  0  0  0
   -7.2372    1.2713    0.7400 H   0  0  0  0  0  0  0  0  0  0  0  0
   -6.9576    2.1226   -0.8102 H   0  0  0  0  0  0  0  0  0  0  0  0
   -5.2455   -2.1741    1.3616 H   0  0  0  0  0  0  0  0  0  0  0  0
   -6.5215   -0.9453    1.5392 H   0  0  0  0  0  0  0  0  0  0  0  0
   -6.2633   -1.7700   -0.0533 H   0  0  0  0  0  0  0  0  0  0  0  0
    5.2467    3.8078   -0.4476 H   0  0  0  0  0  0  0  0  0  0  0  0
    3.9573    4.3058   -1.5978 H   0  0  0  0  0  0  0  0  0  0  0  0
    3.8117    4.7013    0.1641 H   0  0  0  0  0  0  0  0  0  0  0  0
    1.9022   -1.7040    0.5002 H   0  0  0  0  0  0  0  0  0  0  0  0
    5.7881    0.0551    0.3393 H   0  0  0  0  0  0  0  0  0  0  0  0
    2.8427   -3.7286    0.9866 H   0  0  0  0  0  0  0  0  0  0  0  0
    6.7196   -1.9840    0.8390 H   0  0  0  0  0  0  0  0  0  0  0  0
 11  1  1  0      
 17  1  1  0      
  2 21  2  0      
  3  9  1  0      
  4  9  2  0      
  5 33  1  0      
  5 34  1  0      
  6 33  2  0      
  7  8  1  0      
  7 21  1  0      
  7 24  1  0      
  8 19  2  0      
  9 15  1  0      
 10 11  1  0      
 10 15  1  0      
 10 16  2  0      
 11 22  2  0      
 14 12  2  0      
 12 16  1  0      
 12 25  1  0      
 13 19  1  0      
 13 20  2  0      
 13 21  1  0      
 18 14  1  0      
 14 26  1  0      
 15 18  2  0      
 16 35  1  0      
 17 20  1  0      
 23 17  2  0      
 18 36  1  0      
 19 27  1  0      
 20 37  1  0      
 22 23  1  0      
 22 38  1  0      
 23 39  1  0      
 24 28  1  0      
 24 29  2  0      
 25 40  1  0      
 25 41  1  0      
 25 42  1  0      
 26 43  1  0      
 26 44  1  0      
 26 45  1  0      
 27 46  1  0      
 27 47  1  0      
 27 48  1  0      
 28 30  2  0      
 28 49  1  0      
 31 29  1  0      
 29 50  1  0      
 30 32  1  0      
 30 51  1  0      
 32 31  2  0      
 31 52  1  0      
 32 33  1  0      
M  CHG  2   3  -1   9   1
M  END
