
  Chem3D Core 15.004011617543D

  0  0  0     0  0              0 V3000
M  V30 BEGIN CTAB
M  V30 COUNTS 70 73 0 0 0
M  V30 BEGIN ATOM
M  V30 1 O 0.721851 0.925763 1.026973 0
M  V30 2 O -1.675418 4.068012 1.320428 0
M  V30 3 N 1.201534 -1.295815 -2.555236 0
M  V30 4 N -2.436281 -5.786130 -3.670348 0
M  V30 5 N -0.992693 2.205906 0.217913 0
M  V30 6 N -0.833488 2.429489 2.583106 0
M  V30 7 N -0.891787 4.824054 -4.040071 0
M  V30 8 C -1.230285 -1.706565 -2.203847 0
M  V30 9 C 0.173539 -2.338338 -2.447583 0
M  V30 10 C -2.321050 -2.763121 -2.162086 0
M  V30 11 C -2.116687 -3.888005 -2.849043 0
M  V30 12 C -1.037483 -4.199137 -3.565200 0
M  V30 13 C 0.147213 -3.293031 -3.670978 0
M  V30 14 C -1.206434 -0.807714 -0.959882 0
M  V30 15 C -2.977423 -4.903764 -2.935083 0
M  V30 16 C -0.102884 0.250350 -1.098900 0
M  V30 17 C 1.232589 -0.478872 -1.343518 0
M  V30 18 C -3.507884 -2.697012 -1.528206 0
M  V30 19 C -1.284228 -5.417706 -4.067930 0
M  V30 20 C -0.069838 1.154347 0.142689 0
M  V30 21 C 2.532446 -1.834513 -2.832004 0
M  V30 22 C -4.148892 -4.831754 -2.295969 0
M  V30 23 C -4.395712 -3.710486 -1.592825 0
M  V30 24 C 3.538897 -0.729962 -3.060949 0
M  V30 25 C -1.177781 2.970152 1.372271 0
M  V30 26 C -1.746421 2.626272 -0.977658 0
M  V30 27 C 4.656381 -0.576474 -2.336572 0
M  V30 28 C -0.924802 3.606371 -1.835370 0
M  V30 29 C -1.021611 3.141743 3.850204 0
M  V30 30 C -1.693215 4.053999 -3.092497 0
M  V30 31 C -0.719708 2.194399 5.017048 0
M  V30 32 C -1.668651 5.119333 -5.236928 0
M  V30 33 C -0.373126 6.055585 -3.463117 0
M  V30 34 H -1.467989 -1.063757 -3.088947 0
M  V30 35 H 0.403814 -2.974629 -1.554750 0
M  V30 36 H -2.884051 -6.699846 -3.912390 0
M  V30 37 H -0.380157 1.516744 2.605386 0
M  V30 38 H 1.048243 -3.946612 -3.715191 0
M  V30 39 H 0.067707 -2.708749 -4.616878 0
M  V30 40 H -2.185915 -0.300126 -0.815561 0
M  V30 41 H -1.022751 -1.429388 -0.052384 0
M  V30 42 H -0.253146 0.862479 -2.017502 0
M  V30 43 H 2.015821 0.312375 -1.421403 0
M  V30 44 H 1.498878 -1.112311 -0.464615 0
M  V30 45 H -3.781098 -1.803365 -0.946426 0
M  V30 46 H -0.659530 -6.049792 -4.707076 0
M  V30 47 H 2.546618 -2.406321 -3.788039 0
M  V30 48 H 2.862128 -2.522159 -2.019357 0
M  V30 49 H -4.877698 -5.655404 -2.349442 0
M  V30 50 H -5.357728 -3.618328 -1.059732 0
M  V30 51 H 3.325391 -0.016355 -3.875776 0
M  V30 52 H -2.104293 1.767142 -1.581027 0
M  V30 53 H -2.708873 3.108244 -0.687803 0
M  V30 54 H 5.357728 0.246766 -2.542635 0
M  V30 55 H 4.904831 -1.264340 -1.514668 0
M  V30 56 H -0.668658 4.489644 -1.205459 0
M  V30 57 H 0.037161 3.133765 -2.143123 0
M  V30 58 H -0.335963 4.020772 3.886863 0
M  V30 59 H -2.073829 3.502949 3.934571 0
M  V30 60 H -2.057966 3.128292 -3.600802 0
M  V30 61 H -2.596249 4.630944 -2.780460 0
M  V30 62 H -0.852530 2.709921 5.996084 0
M  V30 63 H -1.398848 1.311062 5.001212 0
M  V30 64 H 0.329204 1.821477 4.967537 0
M  V30 65 H -1.046835 5.646992 -5.996084 0
M  V30 66 H -2.026678 4.183063 -5.723268 0
M  V30 67 H -2.554442 5.755856 -5.009546 0
M  V30 68 H 0.191774 6.644298 -4.221682 0
M  V30 69 H 0.355118 5.849578 -2.647870 0
M  V30 70 H -1.188275 6.699846 -3.061232 0
M  V30 END ATOM
M  V30 BEGIN BOND
M  V30 1 2 1 20
M  V30 2 2 2 25
M  V30 3 1 3 9
M  V30 4 1 3 17
M  V30 5 1 3 21
M  V30 6 1 4 15
M  V30 7 1 4 19
M  V30 8 1 4 36
M  V30 9 1 5 20
M  V30 10 1 5 25
M  V30 11 1 5 26
M  V30 12 1 6 25
M  V30 13 1 6 29
M  V30 14 1 6 37
M  V30 15 1 7 30
M  V30 16 1 7 32
M  V30 17 1 7 33
M  V30 18 1 8 9
M  V30 19 1 8 10
M  V30 20 1 8 14
M  V30 21 1 8 34
M  V30 22 1 9 13
M  V30 23 1 9 35
M  V30 24 2 10 11
M  V30 25 1 10 18
M  V30 26 1 11 12
M  V30 27 1 11 15
M  V30 28 1 12 13
M  V30 29 2 12 19
M  V30 30 1 13 38
M  V30 31 1 13 39
M  V30 32 1 14 16
M  V30 33 1 14 40
M  V30 34 1 14 41
M  V30 35 2 15 22
M  V30 36 1 16 17
M  V30 37 1 16 20
M  V30 38 1 16 42
M  V30 39 1 17 43
M  V30 40 1 17 44
M  V30 41 2 18 23
M  V30 42 1 18 45
M  V30 43 1 19 46
M  V30 44 1 21 24
M  V30 45 1 21 47
M  V30 46 1 21 48
M  V30 47 1 22 23
M  V30 48 1 22 49
M  V30 49 1 23 50
M  V30 50 2 24 27
M  V30 51 1 24 51
M  V30 52 1 26 28
M  V30 53 1 26 52
M  V30 54 1 26 53
M  V30 55 1 27 54
M  V30 56 1 27 55
M  V30 57 1 28 30
M  V30 58 1 28 56
M  V30 59 1 28 57
M  V30 60 1 29 31
M  V30 61 1 29 58
M  V30 62 1 29 59
M  V30 63 1 30 60
M  V30 64 1 30 61
M  V30 65 1 31 62
M  V30 66 1 31 63
M  V30 67 1 31 64
M  V30 68 1 32 65
M  V30 69 1 32 66
M  V30 70 1 32 67
M  V30 71 1 33 68
M  V30 72 1 33 69
M  V30 73 1 33 70
M  V30 END BOND
M  V30 END CTAB
M  END
