
  Chem3D Core 15.011031508533D

  0  0  0     0  0              0 V3000
M  V30 BEGIN CTAB
M  V30 COUNTS 61 65 0 0 0
M  V30 BEGIN ATOM
M  V30 1 O -5.072300 -1.420146 -0.467155 0
M  V30 2 C -4.366041 -0.441552 -0.513446 0
M  V30 3 C -4.027911 0.081069 -1.835884 0
M  V30 4 C -2.771047 -0.529103 -2.277241 0
M  V30 5 N -2.635622 -1.844584 -1.945979 0
M  V30 6 C -1.596900 -2.704090 -1.975802 0
M  V30 7 C -0.339543 -2.428517 -2.365773 0
M  V30 8 C 0.614921 -3.372909 -2.338750 0
M  V30 9 C 0.336162 -4.614823 -1.915790 0
M  V30 10 F 1.279737 -5.542209 -1.883922 0
M  V30 11 C -0.913206 -4.899337 -1.519626 0
M  V30 12 C -1.864162 -3.952905 -1.549669 0
M  V30 13 O -1.924403 0.107810 -2.854822 0
M  V30 14 C -5.124346 0.216765 -2.864375 0
M  V30 15 C -4.484937 1.448096 -2.272875 0
M  V30 16 N -3.899881 0.046543 0.664026 0
M  V30 17 C -2.969001 0.951284 1.024873 0
M  V30 18 C -2.266946 1.753383 0.209852 0
M  V30 19 C -1.326627 2.582153 0.689171 0
M  V30 20 C -1.027573 2.636576 2.000773 0
M  V30 21 O -0.032409 3.428263 2.513858 0
M  V30 22 C 1.093423 3.561403 1.739905 0
M  V30 23 C 1.890855 2.538798 1.352264 0
M  V30 24 C 1.671566 1.260469 1.702783 0
M  V30 25 C 2.423991 0.213556 1.307536 0
M  V30 26 O 2.010164 -1.032228 1.732347 0
M  V30 27 C 2.204050 -2.155593 0.904492 0
M  V30 28 C 3.475622 0.457306 0.486720 0
M  V30 29 O 4.271029 -0.582394 0.066900 0
M  V30 30 C 5.476489 -0.319068 -0.611921 0
M  V30 31 C 3.718870 1.744296 0.163788 0
M  V30 32 C 2.959051 2.776408 0.569020 0
M  V30 33 N 3.272845 3.943675 0.186122 0
M  V30 34 C 2.554106 4.917492 0.546409 0
M  V30 35 C 1.464384 4.782292 1.312950 0
M  V30 36 C -1.761307 1.853918 2.813323 0
M  V30 37 C -2.710616 1.032186 2.341838 0
M  V30 38 H -3.459067 -2.298504 -1.568551 0
M  V30 39 H -0.038466 -1.428671 -2.708756 0
M  V30 40 H 1.641488 -3.126668 -2.658937 0
M  V30 41 H -1.156914 -5.914759 -1.165232 0
M  V30 42 H -2.881187 -4.218943 -1.212413 0
M  V30 43 H -4.883987 -0.029465 -3.897579 0
M  V30 44 H -6.148833 -0.002048 -2.567799 0
M  V30 45 H -5.073173 2.030308 -1.565036 0
M  V30 46 H -3.843870 2.035877 -2.927185 0
M  V30 47 H -4.269148 -0.422785 1.478141 0
M  V30 48 H -2.421089 1.750210 -0.875110 0
M  V30 49 H -0.770929 3.210516 -0.027374 0
M  V30 50 H 0.821227 1.014554 2.358500 0
M  V30 51 H 1.523431 -2.961396 1.260803 0
M  V30 52 H 1.931872 -1.913874 -0.146682 0
M  V30 53 H 3.242013 -2.541803 0.996741 0
M  V30 54 H 5.980267 -1.294849 -0.794504 0
M  V30 55 H 5.272650 0.148315 -1.600907 0
M  V30 56 H 6.148833 0.304741 0.018363 0
M  V30 57 H 4.578334 1.992263 -0.479874 0
M  V30 58 H 2.862348 5.914759 0.189560 0
M  V30 59 H 0.872473 5.671015 1.587412 0
M  V30 60 H -1.556966 1.869893 3.897579 0
M  V30 61 H -3.259119 0.394610 3.056806 0
M  V30 END ATOM
M  V30 BEGIN BOND
M  V30 1 2 1 2
M  V30 2 1 2 3
M  V30 3 1 2 16
M  V30 4 1 3 4
M  V30 5 1 3 14
M  V30 6 1 3 15
M  V30 7 1 4 5
M  V30 8 2 4 13
M  V30 9 1 5 6
M  V30 10 1 5 38
M  V30 11 1 6 7
M  V30 12 2 6 12
M  V30 13 2 7 8
M  V30 14 1 7 39
M  V30 15 1 8 9
M  V30 16 1 8 40
M  V30 17 1 9 10
M  V30 18 2 9 11
M  V30 19 1 11 12
M  V30 20 1 11 41
M  V30 21 1 12 42
M  V30 22 1 14 15
M  V30 23 1 14 43
M  V30 24 1 14 44
M  V30 25 1 15 45
M  V30 26 1 15 46
M  V30 27 1 16 17
M  V30 28 1 16 47
M  V30 29 1 17 18
M  V30 30 2 17 37
M  V30 31 2 18 19
M  V30 32 1 18 48
M  V30 33 1 19 20
M  V30 34 1 19 49
M  V30 35 1 20 21
M  V30 36 2 20 36
M  V30 37 1 21 22
M  V30 38 1 22 23
M  V30 39 2 35 22
M  V30 40 2 23 24
M  V30 41 1 23 32
M  V30 42 1 24 25
M  V30 43 1 24 50
M  V30 44 1 25 26
M  V30 45 2 25 28
M  V30 46 1 26 27
M  V30 47 1 27 51
M  V30 48 1 27 52
M  V30 49 1 27 53
M  V30 50 1 28 29
M  V30 51 1 28 31
M  V30 52 1 29 30
M  V30 53 1 30 54
M  V30 54 1 30 55
M  V30 55 1 30 56
M  V30 56 2 31 32
M  V30 57 1 31 57
M  V30 58 1 32 33
M  V30 59 2 34 33
M  V30 60 1 34 35
M  V30 61 1 34 58
M  V30 62 1 35 59
M  V30 63 1 36 37
M  V30 64 1 36 60
M  V30 65 1 37 61
M  V30 END BOND
M  V30 END CTAB
M  END
