
  Chem3D Core 15.003241614413D

 56 56  0  0  0  0  0  0  0  0999 V2000
   -1.3456   -1.5262    2.0205 O   0  0  0  0  0  0  0  0  0  0  0  0
   -0.3150    2.7946   -0.6709 O   0  0  0  0  0  0  0  0  0  0  0  0
    0.6348   -0.5847    1.6402 O   0  0  0  0  0  0  0  0  0  0  0  0
    2.0071   -0.4817   -2.7328 O   0  0  0  0  0  0  0  0  0  0  0  0
   -1.1083    0.8139    1.8140 N   0  0  0  0  0  0  0  0  0  0  0  0
    1.3885    1.4772    0.0089 N   0  0  0  0  0  0  0  0  0  0  0  0
   -0.3536    2.0608    1.6162 C   0  0  0  0  0  0  0  0  0  0  0  0
    0.2242    2.1649    0.2047 C   0  0  0  0  0  0  0  0  0  0  0  0
   -0.5522   -0.4368    1.8188 C   0  0  0  0  0  0  0  0  0  0  0  0
    0.6510    2.3644    2.7434 C   0  0  0  0  0  0  0  0  0  0  0  0
    2.0969    1.4471   -1.2795 C   0  0  0  0  0  0  0  0  0  0  0  0
    1.3753    3.7218    2.6201 C   0  0  0  0  0  0  0  0  0  0  0  0
   -3.4999   -2.6145    2.3994 C   0  0  0  0  0  0  0  0  0  0  0  0
   -2.7298   -1.3202    2.2174 C   0  0  0  0  0  0  0  0  0  0  0  0
    3.5957    1.2108   -1.0183 C   0  0  0  0  0  0  0  0  0  0  0  0
    1.4250    0.4414   -2.2114 C   0  0  0  0  0  0  0  0  0  0  0  0
   -2.8891   -3.7958    2.6067 C   0  0  0  0  0  0  0  0  0  0  0  0
   -4.8448   -2.5951    2.3549 C   0  0  0  0  0  0  0  0  0  0  0  0
   -3.6003   -4.9239    2.7627 C   0  0  0  0  0  0  0  0  0  0  0  0
   -5.5631   -3.7176    2.5105 C   0  0  0  0  0  0  0  0  0  0  0  0
   -4.9401   -4.8876    2.7148 C   0  0  0  0  0  0  0  0  0  0  0  0
    0.4118    4.9164    2.7280 C   0  0  0  0  0  0  0  0  0  0  0  0
    2.4670    3.8366    3.7002 C   0  0  0  0  0  0  0  0  0  0  0  0
    4.5338    1.4040   -2.2245 C   0  0  0  0  0  0  0  0  0  0  0  0
    4.5974    2.8494   -2.7445 C   0  0  0  0  0  0  0  0  0  0  0  0
    5.6447    3.0082   -3.8558 C   0  0  0  0  0  0  0  0  0  0  0  0
   -2.1135    0.8754    1.9688 H   0  0  0  0  0  0  0  0  0  0  0  0
    1.7465    0.9014    0.7699 H   0  0  0  0  0  0  0  0  0  0  0  0
   -1.1390    2.8545    1.6735 H   0  0  0  0  0  0  0  0  0  0  0  0
    0.1178    2.3258    3.7228 H   0  0  0  0  0  0  0  0  0  0  0  0
    1.4225    1.5614    2.7792 H   0  0  0  0  0  0  0  0  0  0  0  0
    1.9973    2.4454   -1.7661 H   0  0  0  0  0  0  0  0  0  0  0  0
    1.8854    3.7717    1.6254 H   0  0  0  0  0  0  0  0  0  0  0  0
   -2.8751   -0.6995    3.1320 H   0  0  0  0  0  0  0  0  0  0  0  0
   -3.1363   -0.7876    1.3263 H   0  0  0  0  0  0  0  0  0  0  0  0
    3.9301    1.9060   -0.2101 H   0  0  0  0  0  0  0  0  0  0  0  0
    3.7218    0.1785   -0.6110 H   0  0  0  0  0  0  0  0  0  0  0  0
    0.3367    0.5942   -2.4087 H   0  0  0  0  0  0  0  0  0  0  0  0
   -1.7901   -3.8592    2.6541 H   0  0  0  0  0  0  0  0  0  0  0  0
   -5.3716   -1.6410    2.1893 H   0  0  0  0  0  0  0  0  0  0  0  0
   -3.0830   -5.8838    2.9320 H   0  0  0  0  0  0  0  0  0  0  0  0
   -6.6642   -3.6793    2.4714 H   0  0  0  0  0  0  0  0  0  0  0  0
   -5.5257   -5.8142    2.8439 H   0  0  0  0  0  0  0  0  0  0  0  0
    0.9635    5.8838    2.7050 H   0  0  0  0  0  0  0  0  0  0  0  0
   -0.3121    4.9465    1.8835 H   0  0  0  0  0  0  0  0  0  0  0  0
   -0.1674    4.8811    3.6785 H   0  0  0  0  0  0  0  0  0  0  0  0
    3.0254    4.7966    3.6126 H   0  0  0  0  0  0  0  0  0  0  0  0
    3.2135    3.0144    3.6124 H   0  0  0  0  0  0  0  0  0  0  0  0
    2.0276    3.7909    4.7225 H   0  0  0  0  0  0  0  0  0  0  0  0
    5.5632    1.0975   -1.9160 H   0  0  0  0  0  0  0  0  0  0  0  0
    4.2449    0.7265   -3.0598 H   0  0  0  0  0  0  0  0  0  0  0  0
    3.6050    3.1573   -3.1493 H   0  0  0  0  0  0  0  0  0  0  0  0
    4.8465    3.5406   -1.9044 H   0  0  0  0  0  0  0  0  0  0  0  0
    5.6758    4.0577   -4.2294 H   0  0  0  0  0  0  0  0  0  0  0  0
    6.6642    2.7502   -3.4885 H   0  0  0  0  0  0  0  0  0  0  0  0
    5.4138    2.3473   -4.7225 H   0  0  0  0  0  0  0  0  0  0  0  0
  1  9  1  0      
  1 14  1  0      
  2  8  2  0      
  3  9  2  0      
  4 16  2  0      
  5  7  1  0      
  5  9  1  0      
  5 27  1  0      
  6  8  1  0      
  6 11  1  0      
  6 28  1  0      
  7  8  1  0      
  7 10  1  0      
  7 29  1  0      
 10 12  1  0      
 10 30  1  0      
 10 31  1  0      
 11 15  1  0      
 11 16  1  0      
 11 32  1  0      
 12 22  1  0      
 12 23  1  0      
 12 33  1  0      
 13 14  1  0      
 13 17  1  0      
 13 18  2  0      
 14 34  1  0      
 14 35  1  0      
 15 24  1  0      
 15 36  1  0      
 15 37  1  0      
 16 38  1  0      
 17 19  2  0      
 17 39  1  0      
 20 18  1  0      
 18 40  1  0      
 19 21  1  0      
 19 41  1  0      
 21 20  2  0      
 20 42  1  0      
 21 43  1  0      
 22 44  1  0      
 22 45  1  0      
 22 46  1  0      
 23 47  1  0      
 23 48  1  0      
 23 49  1  0      
 24 25  1  0      
 24 50  1  0      
 24 51  1  0      
 25 26  1  0      
 25 52  1  0      
 25 53  1  0      
 26 54  1  0      
 26 55  1  0      
 26 56  1  0      
M  END
