
  Chem3D Core 15.003291610463D

 30 32  0  0  0  0  0  0  0  0999 V2000
    1.9599   -2.1993    0.8638 N   0  0  0  0  0  0  0  0  0  0  0  0
    0.6725   -1.8179    0.6217 C   0  0  0  0  0  0  0  0  0  0  0  0
   -0.1873   -2.6335    0.8198 O   0  0  0  0  0  0  0  0  0  0  0  0
    0.4023   -0.5150    0.2462 N   0  0  0  0  0  0  0  0  0  0  0  0
    1.4334    0.2902   -0.0954 C   0  0  0  0  0  0  0  0  0  0  0  0
    2.3477   -0.1509   -0.9812 C   0  0  0  0  0  0  0  0  0  0  0  0
    3.4478    0.5619   -1.2574 C   0  0  0  0  0  0  0  0  0  0  0  0
    3.6493    1.7223   -0.6208 C   0  0  0  0  0  0  0  0  0  0  0  0
    2.7294    2.1720    0.2457 C   0  0  0  0  0  0  0  0  0  0  0  0
    1.5910    1.4908    0.4937 C   0  0  0  0  0  0  0  0  0  0  0  0
    0.6848    2.0509    1.3180 C   0  0  0  0  0  0  0  0  0  0  0  0
   -0.6380    1.8137    1.3849 C   0  0  0  0  0  0  0  0  0  0  0  0
   -1.3733    0.9587    0.6474 C   0  0  0  0  0  0  0  0  0  0  0  0
   -0.8752   -0.1292    0.0270 C   0  0  0  0  0  0  0  0  0  0  0  0
   -1.6712   -0.8683   -0.7702 C   0  0  0  0  0  0  0  0  0  0  0  0
   -2.9692   -0.5738   -0.9265 C   0  0  0  0  0  0  0  0  0  0  0  0
   -3.4888    0.4601   -0.2532 C   0  0  0  0  0  0  0  0  0  0  0  0
   -2.6944    1.2086    0.5262 C   0  0  0  0  0  0  0  0  0  0  0  0
    2.7216   -1.5438    0.7542 H   0  0  0  0  0  0  0  0  0  0  0  0
    2.1121   -3.1489    1.1710 H   0  0  0  0  0  0  0  0  0  0  0  0
    2.2202   -1.1219   -1.4899 H   0  0  0  0  0  0  0  0  0  0  0  0
    4.1921    0.1863   -1.9792 H   0  0  0  0  0  0  0  0  0  0  0  0
    4.5596    2.3113   -0.8235 H   0  0  0  0  0  0  0  0  0  0  0  0
    2.9269    3.1489    0.7212 H   0  0  0  0  0  0  0  0  0  0  0  0
    0.9982    2.9598    1.8687 H   0  0  0  0  0  0  0  0  0  0  0  0
   -1.1889    2.5694    1.9792 H   0  0  0  0  0  0  0  0  0  0  0  0
   -1.2740   -1.7436   -1.3120 H   0  0  0  0  0  0  0  0  0  0  0  0
   -3.6086   -1.1898   -1.5806 H   0  0  0  0  0  0  0  0  0  0  0  0
   -4.5596    0.7035   -0.3564 H   0  0  0  0  0  0  0  0  0  0  0  0
   -3.1637    2.0695    1.0342 H   0  0  0  0  0  0  0  0  0  0  0  0
  1  2  1  0      
  1 19  1  0      
  1 20  1  0      
  2  3  2  0      
  2  4  1  0      
  4  5  1  0      
  4 14  1  0      
  5  6  1  0      
  5 10  2  0      
  6  7  2  0      
  6 21  1  0      
  7  8  1  0      
  7 22  1  0      
  8  9  2  0      
  8 23  1  0      
  9 10  1  0      
  9 24  1  0      
 10 11  1  0      
 11 12  2  0      
 11 25  1  0      
 12 13  1  0      
 12 26  1  0      
 13 14  2  0      
 13 18  1  0      
 15 14  1  0      
 16 15  2  0      
 15 27  1  0      
 17 16  1  0      
 16 28  1  0      
 18 17  2  0      
 17 29  1  0      
 18 30  1  0      
M  END
