
  Chem3D Core 15.008171513373D

 25 24  0  0  0  0  0  0  0  0999 V2000
    1.5906    0.7767    1.1405 N   0  0  0  0  0  0  0  0  0  0  0  0
    2.5916    0.8325    0.9542 H   0  0  0  0  0  0  0  0  0  0  0  0
    1.4359    0.0518    1.8414 H   0  0  0  0  0  0  0  0  0  0  0  0
    1.2534    1.6718    1.4966 H   0  0  0  0  0  0  0  0  0  0  0  0
    3.0095   -1.6171    1.5646 N   0  0  0  0  0  0  0  0  0  0  0  0
    2.2182   -1.4680    0.9372 H   0  0  0  0  0  0  0  0  0  0  0  0
    2.6712   -2.0626    2.4170 H   0  0  0  0  0  0  0  0  0  0  0  0
    3.6870   -2.2278    1.1087 H   0  0  0  0  0  0  0  0  0  0  0  0
   -0.8575    2.2635    0.5707 O   0  0  0  0  0  0  0  0  0  0  0  0
   -1.1117    1.3234   -0.1555 C   0  0  0  0  0  0  0  0  0  0  0  0
   -1.2288    1.4115   -1.5127 O   0  0  0  0  0  0  0  0  0  0  0  0
    0.2203    0.5057   -2.4365 Pt  0  0  0  0  0  0  0  0  0  0  0  0
   -0.4179   -1.1403   -1.6263 O   0  0  0  0  0  0  0  0  0  0  0  0
   -0.3740   -1.1309   -0.2606 C   0  0  0  0  0  0  0  0  0  0  0  0
    0.3393   -1.8619    0.3965 O   0  0  0  0  0  0  0  0  0  0  0  0
   -1.3615   -0.1094    0.3173 C   0  0  0  0  0  0  0  0  0  0  0  0
   -2.8342   -0.5695    0.1285 C   0  0  0  0  0  0  0  0  0  0  0  0
   -2.7795   -1.1928    1.5437 C   0  0  0  0  0  0  0  0  0  0  0  0
   -1.5943   -0.2462    1.8490 C   0  0  0  0  0  0  0  0  0  0  0  0
   -3.5458    0.2865    0.0790 H   0  0  0  0  0  0  0  0  0  0  0  0
   -3.0129   -1.3061   -0.6840 H   0  0  0  0  0  0  0  0  0  0  0  0
   -2.4718   -2.2635    1.5239 H   0  0  0  0  0  0  0  0  0  0  0  0
   -3.6870   -1.0211    2.1627 H   0  0  0  0  0  0  0  0  0  0  0  0
   -1.9558    0.6911    2.3297 H   0  0  0  0  0  0  0  0  0  0  0  0
   -0.7730   -0.7071    2.4365 H   0  0  0  0  0  0  0  0  0  0  0  0
  1  2  1  0      
  1  3  1  0      
  1  4  1  0      
  5  6  1  0      
  5  7  1  0      
  5  8  1  0      
  9 10  2  0      
 10 11  1  0      
 10 16  1  0      
 11 12  1  0      
 12 13  1  0      
 13 14  1  0      
 14 15  2  0      
 14 16  1  0      
 16 17  1  0      
 16 19  1  0      
 17 18  1  0      
 17 20  1  0      
 17 21  1  0      
 18 19  1  0      
 18 22  1  0      
 18 23  1  0      
 19 24  1  0      
 19 25  1  0      
M  END
