
  Chem3D Core 15.008141512273D

109112  0  0  0  0  0  0  0  0999 V2000
    1.9218   -2.5208    2.8191 O   0  0  0  0  0  0  0  0  0  0  0  0
    4.6629   -3.1523    0.8564 O   0  0  0  0  0  0  0  0  0  0  0  0
    3.1876    0.0891    1.3516 O   0  0  0  0  0  0  0  0  0  0  0  0
   -0.6178   -1.6468    0.9730 O   0  0  0  0  0  0  0  0  0  0  0  0
    0.2917   -0.7911   -2.3363 O   0  0  0  0  0  0  0  0  0  0  0  0
   -1.4322    2.6755   -1.5320 O   0  0  0  0  0  0  0  0  0  0  0  0
   -6.2997    3.4281   -4.5871 O   0  0  0  0  0  0  0  0  0  0  0  0
    1.8816   -1.1553    0.0028 N   0  0  0  0  0  0  0  0  0  0  0  0
   -0.2808    0.4829    0.3071 N   0  0  0  0  0  0  0  0  0  0  0  0
   -1.7299    0.0959   -1.9019 N   0  0  0  0  0  0  0  0  0  0  0  0
   -1.4771    2.0902   -3.7102 N   0  0  0  0  0  0  0  0  0  0  0  0
   -4.3294    3.1286   -2.5167 N   0  0  0  0  0  0  0  0  0  0  0  0
    2.5361   -3.4969    1.7136 C   0  0  0  0  0  0  0  0  0  0  0  0
    3.4788   -2.9129    0.7418 C   0  0  0  0  0  0  0  0  0  0  0  0
    2.8927   -3.4976    3.1051 C   0  0  0  0  0  0  0  0  0  0  0  0
    2.9377   -2.0817   -0.4276 C   0  0  0  0  0  0  0  0  0  0  0  0
    1.5112   -4.4894    1.1947 C   0  0  0  0  0  0  0  0  0  0  0  0
    3.9872   -1.3816   -1.3074 C   0  0  0  0  0  0  0  0  0  0  0  0
    2.1035   -0.1194    0.8664 C   0  0  0  0  0  0  0  0  0  0  0  0
    0.8802    0.7532    1.1672 C   0  0  0  0  0  0  0  0  0  0  0  0
    4.7872   -2.2726   -2.2789 C   0  0  0  0  0  0  0  0  0  0  0  0
   -0.9346   -0.7190    0.2732 C   0  0  0  0  0  0  0  0  0  0  0  0
    0.5009    0.8086    2.6587 C   0  0  0  0  0  0  0  0  0  0  0  0
   -2.0373   -0.8003   -0.7811 C   0  0  0  0  0  0  0  0  0  0  0  0
    1.5819    1.4266    3.5219 C   0  0  0  0  0  0  0  0  0  0  0  0
   -0.5460    0.0401   -2.5858 C   0  0  0  0  0  0  0  0  0  0  0  0
   -0.3521    1.1433   -3.6350 C   0  0  0  0  0  0  0  0  0  0  0  0
   -2.3755   -2.2218   -1.2654 C   0  0  0  0  0  0  0  0  0  0  0  0
    3.9070   -2.8818   -3.3847 C   0  0  0  0  0  0  0  0  0  0  0  0
    5.9143   -1.4443   -2.9255 C   0  0  0  0  0  0  0  0  0  0  0  0
    2.3112    0.6785    4.3698 C   0  0  0  0  0  0  0  0  0  0  0  0
    1.8360    2.7462    3.4561 C   0  0  0  0  0  0  0  0  0  0  0  0
    0.9797    1.9046   -3.4778 C   0  0  0  0  0  0  0  0  0  0  0  0
   -3.2458   -3.0581   -0.3040 C   0  0  0  0  0  0  0  0  0  0  0  0
   -1.9090    2.8123   -2.6309 C   0  0  0  0  0  0  0  0  0  0  0  0
    3.2742    1.2293    5.1251 C   0  0  0  0  0  0  0  0  0  0  0  0
    2.7967    3.3048    4.2085 C   0  0  0  0  0  0  0  0  0  0  0  0
    2.2048    1.1680   -4.0430 C   0  0  0  0  0  0  0  0  0  0  0  0
   -3.0722    3.7469   -2.9232 C   0  0  0  0  0  0  0  0  0  0  0  0
    3.5199    2.5455    5.0450 C   0  0  0  0  0  0  0  0  0  0  0  0
    3.5026    1.8989   -3.7616 C   0  0  0  0  0  0  0  0  0  0  0  0
   -4.7114   -2.5886   -0.2955 C   0  0  0  0  0  0  0  0  0  0  0  0
   -3.1816   -4.5469   -0.6910 C   0  0  0  0  0  0  0  0  0  0  0  0
   -5.4198    4.0910   -2.4457 C   0  0  0  0  0  0  0  0  0  0  0  0
   -4.7439    2.0340   -3.3836 C   0  0  0  0  0  0  0  0  0  0  0  0
    4.2741    2.3584   -4.7636 C   0  0  0  0  0  0  0  0  0  0  0  0
    3.9206    2.0933   -2.4971 C   0  0  0  0  0  0  0  0  0  0  0  0
   -5.8992    4.5388   -3.8257 C   0  0  0  0  0  0  0  0  0  0  0  0
   -5.2513    2.5065   -4.7457 C   0  0  0  0  0  0  0  0  0  0  0  0
    5.4302    2.9921   -4.5116 C   0  0  0  0  0  0  0  0  0  0  0  0
    5.0760    2.7237   -2.2364 C   0  0  0  0  0  0  0  0  0  0  0  0
    5.8348    3.1753   -3.2459 C   0  0  0  0  0  0  0  0  0  0  0  0
    0.9494   -1.2788   -0.3952 H   0  0  0  0  0  0  0  0  0  0  0  0
   -0.6132    1.2349   -0.2984 H   0  0  0  0  0  0  0  0  0  0  0  0
   -2.3845    0.8505   -2.1059 H   0  0  0  0  0  0  0  0  0  0  0  0
   -1.9158    2.2601   -4.6151 H   0  0  0  0  0  0  0  0  0  0  0  0
    3.8059   -3.0050    3.4381 H   0  0  0  0  0  0  0  0  0  0  0  0
    2.4761   -4.2559    3.7664 H   0  0  0  0  0  0  0  0  0  0  0  0
    2.4041   -2.8272   -1.0639 H   0  0  0  0  0  0  0  0  0  0  0  0
    0.7081   -3.9553    0.6395 H   0  0  0  0  0  0  0  0  0  0  0  0
    1.9989   -5.2079    0.4978 H   0  0  0  0  0  0  0  0  0  0  0  0
    1.0328   -5.0751    2.0107 H   0  0  0  0  0  0  0  0  0  0  0  0
    3.4629   -0.6178   -1.9233 H   0  0  0  0  0  0  0  0  0  0  0  0
    4.6914   -0.8205   -0.6503 H   0  0  0  0  0  0  0  0  0  0  0  0
    1.2071    1.7790    0.8615 H   0  0  0  0  0  0  0  0  0  0  0  0
    5.2610   -3.1086   -1.7083 H   0  0  0  0  0  0  0  0  0  0  0  0
   -0.4278    1.4153    2.7817 H   0  0  0  0  0  0  0  0  0  0  0  0
    0.2479   -0.2123    3.0234 H   0  0  0  0  0  0  0  0  0  0  0  0
   -2.9368   -0.3580   -0.2911 H   0  0  0  0  0  0  0  0  0  0  0  0
   -0.3441    0.6139   -4.6189 H   0  0  0  0  0  0  0  0  0  0  0  0
   -2.9068   -2.1607   -2.2447 H   0  0  0  0  0  0  0  0  0  0  0  0
   -1.4171   -2.7556   -1.4669 H   0  0  0  0  0  0  0  0  0  0  0  0
    4.5208   -3.4666   -4.1072 H   0  0  0  0  0  0  0  0  0  0  0  0
    3.1446   -3.5829   -2.9798 H   0  0  0  0  0  0  0  0  0  0  0  0
    3.3741   -2.0908   -3.9591 H   0  0  0  0  0  0  0  0  0  0  0  0
    6.5321   -2.0665   -3.6123 H   0  0  0  0  0  0  0  0  0  0  0  0
    6.6013   -1.0223   -2.1570 H   0  0  0  0  0  0  0  0  0  0  0  0
    5.5015   -0.5942   -3.5153 H   0  0  0  0  0  0  0  0  0  0  0  0
    2.1275   -0.4049    4.4504 H   0  0  0  0  0  0  0  0  0  0  0  0
    1.2507    3.3841    2.7732 H   0  0  0  0  0  0  0  0  0  0  0  0
    0.9088    2.8846   -4.0092 H   0  0  0  0  0  0  0  0  0  0  0  0
    1.1223    2.1375   -2.3972 H   0  0  0  0  0  0  0  0  0  0  0  0
   -2.8470   -2.9657    0.7359 H   0  0  0  0  0  0  0  0  0  0  0  0
    3.8650    0.5997    5.8115 H   0  0  0  0  0  0  0  0  0  0  0  0
    2.9927    4.3879    4.1389 H   0  0  0  0  0  0  0  0  0  0  0  0
    2.2927    0.1478   -3.6128 H   0  0  0  0  0  0  0  0  0  0  0  0
    2.0639    1.0190   -5.1387 H   0  0  0  0  0  0  0  0  0  0  0  0
   -2.8818    4.6648   -2.3172 H   0  0  0  0  0  0  0  0  0  0  0  0
   -3.0603    4.0651   -3.9879 H   0  0  0  0  0  0  0  0  0  0  0  0
    4.3110    3.0007    5.6639 H   0  0  0  0  0  0  0  0  0  0  0  0
   -5.3267   -3.2093    0.3950 H   0  0  0  0  0  0  0  0  0  0  0  0
   -4.8121   -1.5341    0.0440 H   0  0  0  0  0  0  0  0  0  0  0  0
   -5.1647   -2.6633   -1.3099 H   0  0  0  0  0  0  0  0  0  0  0  0
   -3.7963   -5.1712   -0.0031 H   0  0  0  0  0  0  0  0  0  0  0  0
   -2.1379   -4.9337   -0.6406 H   0  0  0  0  0  0  0  0  0  0  0  0
   -3.5574   -4.7089   -1.7268 H   0  0  0  0  0  0  0  0  0  0  0  0
   -6.2802    3.6281   -1.9035 H   0  0  0  0  0  0  0  0  0  0  0  0
   -5.1282    4.9761   -1.8327 H   0  0  0  0  0  0  0  0  0  0  0  0
   -3.9247    1.2913   -3.5161 H   0  0  0  0  0  0  0  0  0  0  0  0
   -5.5652    1.4673   -2.8802 H   0  0  0  0  0  0  0  0  0  0  0  0
    3.9632    2.2145   -5.8115 H   0  0  0  0  0  0  0  0  0  0  0  0
    3.3155    1.7277   -1.6512 H   0  0  0  0  0  0  0  0  0  0  0  0
   -6.7857    5.2079   -3.7254 H   0  0  0  0  0  0  0  0  0  0  0  0
   -5.1204    5.1086   -4.3801 H   0  0  0  0  0  0  0  0  0  0  0  0
   -5.6553    1.6425   -5.3237 H   0  0  0  0  0  0  0  0  0  0  0  0
   -4.4476    2.9610   -5.3663 H   0  0  0  0  0  0  0  0  0  0  0  0
    6.0509    3.3602   -5.3458 H   0  0  0  0  0  0  0  0  0  0  0  0
    5.4026    2.8684   -1.1929 H   0  0  0  0  0  0  0  0  0  0  0  0
    6.7857    3.6929   -3.0364 H   0  0  0  0  0  0  0  0  0  0  0  0
 13  1  1  0      
  1 15  1  0      
  2 14  2  0      
  3 19  2  0      
  4 22  2  0      
  5 26  2  0      
  6 35  2  0      
 48  7  1  0      
  7 49  1  0      
  8 16  1  0      
  8 19  1  0      
  8 53  1  0      
  9 20  1  0      
  9 22  1  0      
  9 54  1  0      
 10 24  1  0      
 10 26  1  0      
 10 55  1  0      
 11 27  1  0      
 11 35  1  0      
 11 56  1  0      
 12 39  1  0      
 12 44  1  0      
 12 45  1  0      
 13 14  1  0      
 13 15  1  0      
 13 17  1  0      
 14 16  1  0      
 15 57  1  0      
 15 58  1  0      
 16 18  1  0      
 16 59  1  0      
 17 60  1  0      
 17 61  1  0      
 17 62  1  0      
 18 21  1  0      
 18 63  1  0      
 18 64  1  0      
 19 20  1  0      
 20 23  1  0      
 20 65  1  0      
 21 29  1  0      
 21 30  1  0      
 21 66  1  0      
 22 24  1  0      
 23 25  1  0      
 23 67  1  0      
 23 68  1  0      
 24 28  1  0      
 24 69  1  0      
 25 31  1  0      
 25 32  2  0      
 26 27  1  0      
 27 33  1  0      
 27 70  1  0      
 28 34  1  0      
 28 71  1  0      
 28 72  1  0      
 29 73  1  0      
 29 74  1  0      
 29 75  1  0      
 30 76  1  0      
 30 77  1  0      
 30 78  1  0      
 31 36  2  0      
 31 79  1  0      
 37 32  1  0      
 32 80  1  0      
 33 38  1  0      
 33 81  1  0      
 33 82  1  0      
 34 42  1  0      
 34 43  1  0      
 34 83  1  0      
 35 39  1  0      
 36 40  1  0      
 36 84  1  0      
 40 37  2  0      
 37 85  1  0      
 38 41  1  0      
 38 86  1  0      
 38 87  1  0      
 39 88  1  0      
 39 89  1  0      
 40 90  1  0      
 41 46  1  0      
 41 47  2  0      
 42 91  1  0      
 42 92  1  0      
 42 93  1  0      
 43 94  1  0      
 43 95  1  0      
 43 96  1  0      
 44 48  1  0      
 44 97  1  0      
 44 98  1  0      
 49 45  1  0      
 45 99  1  0      
 45100  1  0      
 46 50  2  0      
 46101  1  0      
 51 47  1  0      
 47102  1  0      
 48103  1  0      
 48104  1  0      
 49105  1  0      
 49106  1  0      
 50 52  1  0      
 50107  1  0      
 52 51  2  0      
 51108  1  0      
 52109  1  0      
M  END
