
  Chem3D Core 15.003291616453D

  0  0  0     0  0              0 V3000
M  V30 BEGIN CTAB
M  V30 COUNTS 46 49 0 0 0
M  V30 BEGIN ATOM
M  V30 1 C 1.576741 1.025466 -3.222305 0
M  V30 2 C 2.690353 0.299055 -3.029826 0
M  V30 3 C 2.583578 -0.790794 -2.257458 0
M  V30 4 C 1.451936 -1.160019 -1.632706 0
M  V30 5 C 0.336216 -0.407324 -1.774526 0
M  V30 6 C 0.440653 0.652136 -2.607827 0
M  V30 7 C 1.600490 2.255873 -4.109172 0
M  V30 8 C 1.997812 3.499602 -3.304259 0
M  V30 9 O 3.876071 0.609617 -3.620438 0
M  V30 10 O 1.473589 -2.351794 -0.976157 0
M  V30 11 C -0.863928 -0.660090 -1.193650 0
M  V30 12 C -1.257543 -1.370992 -0.105183 0
M  V30 13 C -2.607137 -1.344065 -0.119919 0
M  V30 14 N -1.917088 -0.173057 -1.712266 0
M  V30 15 N -2.892693 -0.614584 -1.113241 0
M  V30 16 C -3.611078 -1.847162 0.880299 0
M  V30 17 C -0.527616 -1.908263 0.894473 0
M  V30 18 C -0.141570 -3.489568 2.571912 0
M  V30 19 C -0.901086 -3.000939 1.581537 0
M  V30 20 C 0.627903 -1.336093 1.282093 0
M  V30 21 C 1.010148 -2.905994 2.945045 0
M  V30 22 C 1.416084 -1.814394 2.262982 0
M  V30 23 C 3.088141 -3.000246 3.986372 0
M  V30 24 C 3.095156 -1.491899 3.845618 0
M  V30 25 O 1.762556 -3.455054 3.949588 0
M  V30 26 O 2.566738 -1.146567 2.593767 0
M  V30 27 H 3.476104 -1.430708 -2.145383 0
M  V30 28 H -0.420858 1.315396 -2.791785 0
M  V30 29 H 2.308168 2.111411 -4.958310 0
M  V30 30 H 0.602422 2.417473 -4.580020 0
M  V30 31 H 2.013243 4.406442 -3.951767 0
M  V30 32 H 1.278195 3.687658 -2.474597 0
M  V30 33 H 3.012584 3.385019 -2.858872 0
M  V30 34 H 4.534383 -0.062263 -3.379731 0
M  V30 35 H 0.565090 -2.630938 -0.789407 0
M  V30 36 H -3.855375 -0.331212 -1.405436 0
M  V30 37 H -3.245250 -1.770412 1.927992 0
M  V30 38 H -4.534383 -1.226125 0.831667 0
M  V30 39 H -3.909706 -2.894293 0.649020 0
M  V30 40 H -0.465497 -4.406442 3.093926 0
M  V30 41 H -1.808744 -3.565709 1.319987 0
M  V30 42 H 0.964630 -0.397766 0.809431 0
M  V30 43 H 3.531726 -3.317024 4.958310 0
M  V30 44 H 3.663579 -3.486144 3.164109 0
M  V30 45 H 4.131425 -1.086107 3.903172 0
M  V30 46 H 2.485724 -1.008443 4.644505 0
M  V30 END ATOM
M  V30 BEGIN BOND
M  V30 1 1 1 2
M  V30 2 2 1 6
M  V30 3 1 1 7
M  V30 4 2 2 3
M  V30 5 1 2 9
M  V30 6 1 3 4
M  V30 7 1 3 27
M  V30 8 2 4 5
M  V30 9 1 4 10
M  V30 10 1 5 6
M  V30 11 1 5 11
M  V30 12 1 6 28
M  V30 13 1 7 8
M  V30 14 1 7 29
M  V30 15 1 7 30
M  V30 16 1 8 31
M  V30 17 1 8 32
M  V30 18 1 8 33
M  V30 19 1 9 34
M  V30 20 1 10 35
M  V30 21 1 11 12
M  V30 22 2 11 14
M  V30 23 2 12 13
M  V30 24 1 12 17
M  V30 25 1 13 15
M  V30 26 1 13 16
M  V30 27 1 15 14
M  V30 28 1 15 36
M  V30 29 1 16 37
M  V30 30 1 16 38
M  V30 31 1 16 39
M  V30 32 1 19 17
M  V30 33 2 17 20
M  V30 34 2 18 19
M  V30 35 1 21 18
M  V30 36 1 18 40
M  V30 37 1 19 41
M  V30 38 1 20 22
M  V30 39 1 20 42
M  V30 40 2 21 22
M  V30 41 1 25 21
M  V30 42 1 22 26
M  V30 43 1 23 24
M  V30 44 1 23 25
M  V30 45 1 23 43
M  V30 46 1 23 44
M  V30 47 1 26 24
M  V30 48 1 24 45
M  V30 49 1 24 46
M  V30 END BOND
M  V30 END CTAB
M  END
