
  Chem3D Core 15.001061617083D

 45 47  0  0  0  0  0  0  0  0999 V2000
   -2.0918   -1.0471   -2.2344 S   0  0  0  0  0  0  0  0  0  0  0  0
    3.0564   -3.4976   -0.3021 S   0  0  0  0  0  0  0  0  0  0  0  0
   -0.4663   -1.0792    1.8903 O   0  0  0  0  0  0  0  0  0  0  0  0
   -4.2526    2.8932   -2.1777 O   0  0  0  0  0  0  0  0  0  0  0  0
   -1.5783    1.2844    2.4891 O   0  0  0  0  0  0  0  0  0  0  0  0
   -3.4837    2.0108    1.7251 O   0  0  0  0  0  0  0  0  0  0  0  0
   -0.0921   -5.0984   -0.4172 O   0  0  0  0  0  0  0  0  0  0  0  0
   -5.3050    4.3764   -3.5148 O   0  0  0  0  0  0  0  0  0  0  0  0
   -1.2167    0.0194   -0.0189 N   0  0  0  0  0  0  0  0  0  0  0  0
   -0.2347   -2.9019   -0.7417 N   0  0  0  0  0  0  0  0  0  0  0  0
    5.8908   -2.9768    3.1572 N   0  0  0  0  0  0  0  0  0  0  0  0
   -0.6753   -0.4347   -1.3058 C   0  0  0  0  0  0  0  0  0  0  0  0
    0.1632   -1.5108   -0.5165 C   0  0  0  0  0  0  0  0  0  0  0  0
   -0.4941   -0.8778    0.7087 C   0  0  0  0  0  0  0  0  0  0  0  0
   -2.2037    0.9214    0.1988 C   0  0  0  0  0  0  0  0  0  0  0  0
   -2.9650    1.2679   -0.8746 C   0  0  0  0  0  0  0  0  0  0  0  0
   -2.8467    0.6084   -2.2455 C   0  0  0  0  0  0  0  0  0  0  0  0
   -4.0402    2.3582   -0.8864 C   0  0  0  0  0  0  0  0  0  0  0  0
   -2.4596    1.4064    1.4626 C   0  0  0  0  0  0  0  0  0  0  0  0
    0.3560   -4.0035   -0.1858 C   0  0  0  0  0  0  0  0  0  0  0  0
    1.5683   -3.7704    0.7101 C   0  0  0  0  0  0  0  0  0  0  0  0
   -5.1497    3.8969   -2.4110 C   0  0  0  0  0  0  0  0  0  0  0  0
    4.2004   -3.2828    1.0958 C   0  0  0  0  0  0  0  0  0  0  0  0
   -5.9487    4.3708   -1.2076 C   0  0  0  0  0  0  0  0  0  0  0  0
    4.1676   -2.1759    1.8542 C   0  0  0  0  0  0  0  0  0  0  0  0
    5.1010   -4.2317    1.3938 C   0  0  0  0  0  0  0  0  0  0  0  0
    5.0399   -2.0836    2.8713 C   0  0  0  0  0  0  0  0  0  0  0  0
    5.9184   -4.0188    2.4381 C   0  0  0  0  0  0  0  0  0  0  0  0
   -0.0520    0.3481   -1.7913 H   0  0  0  0  0  0  0  0  0  0  0  0
   -0.7618    0.8310    2.2470 H   0  0  0  0  0  0  0  0  0  0  0  0
   -1.0428   -3.0998   -1.3316 H   0  0  0  0  0  0  0  0  0  0  0  0
    1.2536   -1.3111   -0.5545 H   0  0  0  0  0  0  0  0  0  0  0  0
   -3.8677    0.4550   -2.6688 H   0  0  0  0  0  0  0  0  0  0  0  0
   -2.2903    1.2926   -2.9273 H   0  0  0  0  0  0  0  0  0  0  0  0
   -3.7099    3.2166   -0.2594 H   0  0  0  0  0  0  0  0  0  0  0  0
   -4.9929    1.8992   -0.5347 H   0  0  0  0  0  0  0  0  0  0  0  0
    1.7114   -4.6793    1.3407 H   0  0  0  0  0  0  0  0  0  0  0  0
    1.3699   -2.9378    1.4181 H   0  0  0  0  0  0  0  0  0  0  0  0
   -5.2933    4.8278   -0.4336 H   0  0  0  0  0  0  0  0  0  0  0  0
   -6.6700    5.1612   -1.5162 H   0  0  0  0  0  0  0  0  0  0  0  0
   -6.5541    3.5482   -0.7669 H   0  0  0  0  0  0  0  0  0  0  0  0
    3.4516   -1.3619    1.6563 H   0  0  0  0  0  0  0  0  0  0  0  0
    5.1741   -5.1612    0.8067 H   0  0  0  0  0  0  0  0  0  0  0  0
    5.0403   -1.1873    3.5148 H   0  0  0  0  0  0  0  0  0  0  0  0
    6.6700   -4.7789    2.7117 H   0  0  0  0  0  0  0  0  0  0  0  0
 12  1  1  0      
  1 17  1  0      
  2 21  1  0      
  2 23  1  0      
  3 14  2  0      
  4 18  1  0      
  4 22  1  0      
  5 19  1  0      
  5 30  1  0      
  6 19  2  0      
  7 20  2  0      
  8 22  2  0      
 12  9  1  0      
  9 14  1  0      
 15  9  1  0      
 13 10  1  0      
 10 20  1  0      
 10 31  1  0      
 27 11  2  0      
 11 28  1  0      
 13 12  1  0      
 12 29  1  0      
 13 14  1  0      
 13 32  1  0      
 16 15  2  0      
 15 19  1  0      
 17 16  1  0      
 16 18  1  0      
 17 33  1  0      
 17 34  1  0      
 18 35  1  0      
 18 36  1  0      
 20 21  1  0      
 21 37  1  0      
 21 38  1  0      
 22 24  1  0      
 23 25  2  0      
 26 23  1  0      
 24 39  1  0      
 24 40  1  0      
 24 41  1  0      
 25 27  1  0      
 25 42  1  0      
 26 28  2  0      
 26 43  1  0      
 27 44  1  0      
 28 45  1  0      
M  END
