
  Chem3D Core 15.012311513573D

 71 75  0  0  0  0  0  0  0  0999 V2000
   -3.7460    4.4531   -2.9961 O   0  0  0  0  0  0  0  0  0  0  0  0
   -5.6106    4.2170   -1.7486 O   0  0  0  0  0  0  0  0  0  0  0  0
    3.6971   -5.5450   -0.9854 O   0  0  0  0  0  0  0  0  0  0  0  0
    1.1418   -5.5616   -0.9907 O   0  0  0  0  0  0  0  0  0  0  0  0
   -0.5228    1.5835   -0.0917 C   0  0  0  0  0  0  0  0  0  0  0  0
   -1.3400    2.8980    0.1723 C   0  0  0  0  0  0  0  0  0  0  0  0
    0.7145    1.5171    0.8559 C   0  0  0  0  0  0  0  0  0  0  0  0
   -0.5045    4.2192    0.1864 C   0  0  0  0  0  0  0  0  0  0  0  0
    1.6432    2.7035    0.4700 C   0  0  0  0  0  0  0  0  0  0  0  0
    1.0005    3.9910   -0.0829 C   0  0  0  0  0  0  0  0  0  0  0  0
   -1.3928    0.3259    0.1720 C   0  0  0  0  0  0  0  0  0  0  0  0
   -2.5887    3.0013   -0.7417 C   0  0  0  0  0  0  0  0  0  0  0  0
    1.4251    0.1501    0.7364 C   0  0  0  0  0  0  0  0  0  0  0  0
   -1.0448    5.1868   -0.9016 C   0  0  0  0  0  0  0  0  0  0  0  0
    0.6424   -1.1587    0.7254 C   0  0  0  0  0  0  0  0  0  0  0  0
   -3.4241    4.2965   -0.6383 C   0  0  0  0  0  0  0  0  0  0  0  0
   -0.6566   -0.9973   -0.0838 C   0  0  0  0  0  0  0  0  0  0  0  0
   -0.0884    1.4888   -1.5812 C   0  0  0  0  0  0  0  0  0  0  0  0
   -2.5227    5.5480   -0.6958 C   0  0  0  0  0  0  0  0  0  0  0  0
    0.3870    1.6667    2.3620 C   0  0  0  0  0  0  0  0  0  0  0  0
   -0.5916    4.9932    1.5317 C   0  0  0  0  0  0  0  0  0  0  0  0
    1.5141   -2.3052    0.1915 C   0  0  0  0  0  0  0  0  0  0  0  0
    2.7628    0.0545    0.8180 C   0  0  0  0  0  0  0  0  0  0  0  0
    0.3112   -1.6134    2.1684 C   0  0  0  0  0  0  0  0  0  0  0  0
   -4.2521    4.2866    0.6666 C   0  0  0  0  0  0  0  0  0  0  0  0
   -4.4051    4.3164   -1.8227 C   0  0  0  0  0  0  0  0  0  0  0  0
    2.8601   -2.2376    0.2170 C   0  0  0  0  0  0  0  0  0  0  0  0
    3.4348   -1.0853    0.6067 C   0  0  0  0  0  0  0  0  0  0  0  0
    0.9461   -3.4539   -0.2154 C   0  0  0  0  0  0  0  0  0  0  0  0
    3.6083   -3.2998   -0.1614 C   0  0  0  0  0  0  0  0  0  0  0  0
    1.6621   -4.5304   -0.6186 C   0  0  0  0  0  0  0  0  0  0  0  0
    3.0154   -4.4341   -0.5823 C   0  0  0  0  0  0  0  0  0  0  0  0
    5.1271   -3.2542   -0.1432 C   0  0  0  0  0  0  0  0  0  0  0  0
   -1.7575    2.7835    1.2024 H   0  0  0  0  0  0  0  0  0  0  0  0
   -2.7883    4.5259   -2.8622 H   0  0  0  0  0  0  0  0  0  0  0  0
    3.0697   -6.2492   -1.2198 H   0  0  0  0  0  0  0  0  0  0  0  0
    2.3427    2.3713   -0.3356 H   0  0  0  0  0  0  0  0  0  0  0  0
    2.2900    2.9712    1.3392 H   0  0  0  0  0  0  0  0  0  0  0  0
    1.1813    4.0352   -1.1812 H   0  0  0  0  0  0  0  0  0  0  0  0
    1.5867    4.8735    0.2682 H   0  0  0  0  0  0  0  0  0  0  0  0
   -1.8099    0.3375    1.2027 H   0  0  0  0  0  0  0  0  0  0  0  0
   -2.2854    0.3162   -0.4947 H   0  0  0  0  0  0  0  0  0  0  0  0
   -2.2554    2.8787   -1.7955 H   0  0  0  0  0  0  0  0  0  0  0  0
   -3.2886    2.1558   -0.5546 H   0  0  0  0  0  0  0  0  0  0  0  0
   -0.9173    4.7422   -1.9157 H   0  0  0  0  0  0  0  0  0  0  0  0
   -0.4399    6.1247   -0.9192 H   0  0  0  0  0  0  0  0  0  0  0  0
   -1.3691   -1.8264    0.1378 H   0  0  0  0  0  0  0  0  0  0  0  0
   -0.4182   -1.0815   -1.1695 H   0  0  0  0  0  0  0  0  0  0  0  0
    0.7833    0.8143   -1.7285 H   0  0  0  0  0  0  0  0  0  0  0  0
   -0.9008    1.1027   -2.2358 H   0  0  0  0  0  0  0  0  0  0  0  0
    0.1942    2.4582   -2.0334 H   0  0  0  0  0  0  0  0  0  0  0  0
   -2.6304    6.1486    0.2353 H   0  0  0  0  0  0  0  0  0  0  0  0
   -2.8457    6.2492   -1.4998 H   0  0  0  0  0  0  0  0  0  0  0  0
   -0.4404    1.0254    2.7168 H   0  0  0  0  0  0  0  0  0  0  0  0
    1.2748    1.4421    2.9961 H   0  0  0  0  0  0  0  0  0  0  0  0
    0.0664    2.6832    2.6462 H   0  0  0  0  0  0  0  0  0  0  0  0
   -1.6062    4.9852    1.9808 H   0  0  0  0  0  0  0  0  0  0  0  0
    0.1074    4.6156    2.3043 H   0  0  0  0  0  0  0  0  0  0  0  0
   -0.3033    6.0618    1.4113 H   0  0  0  0  0  0  0  0  0  0  0  0
    3.3776    0.9492    1.0025 H   0  0  0  0  0  0  0  0  0  0  0  0
    1.2191   -1.6195    2.8140 H   0  0  0  0  0  0  0  0  0  0  0  0
   -0.4544   -0.9886    2.6679 H   0  0  0  0  0  0  0  0  0  0  0  0
   -0.1147   -2.6419    2.1925 H   0  0  0  0  0  0  0  0  0  0  0  0
   -3.6099    4.2457    1.5716 H   0  0  0  0  0  0  0  0  0  0  0  0
   -4.8837    5.2001    0.7542 H   0  0  0  0  0  0  0  0  0  0  0  0
   -4.9261    3.4023    0.7266 H   0  0  0  0  0  0  0  0  0  0  0  0
    4.5318   -0.9922    0.6645 H   0  0  0  0  0  0  0  0  0  0  0  0
   -0.1487   -3.5713   -0.2183 H   0  0  0  0  0  0  0  0  0  0  0  0
    5.5088   -2.4638   -0.8289 F   0  0  0  0  0  0  0  0  0  0  0  0
    5.5060   -3.0742    0.8886 F   0  0  0  0  0  0  0  0  0  0  0  0
    5.6106   -4.1973   -0.4771 F   0  0  0  0  0  0  0  0  0  0  0  0
  1 26  1  0      
  1 35  1  0      
  2 26  2  0      
  3 32  1  0      
  3 36  1  0      
  4 31  2  0      
  6  5  1  0      
  5  7  1  0      
 11  5  1  0      
  5 18  1  0      
  8  6  1  0      
 12  6  1  0      
  6 34  1  0      
  9  7  1  0      
 13  7  1  0      
  7 20  1  0      
 10  8  1  0      
 14  8  1  0      
  8 21  1  0      
 10  9  1  0      
  9 37  1  0      
  9 38  1  0      
 10 39  1  0      
 10 40  1  0      
 17 11  1  0      
 11 41  1  0      
 11 42  1  0      
 16 12  1  0      
 12 43  1  0      
 12 44  1  0      
 15 13  1  0      
 23 13  2  0      
 19 14  1  0      
 14 45  1  0      
 14 46  1  0      
 15 17  1  0      
 22 15  1  0      
 15 24  1  0      
 16 19  1  0      
 16 25  1  0      
 16 26  1  0      
 17 47  1  0      
 17 48  1  0      
 18 49  1  0      
 18 50  1  0      
 18 51  1  0      
 19 52  1  0      
 19 53  1  0      
 20 54  1  0      
 20 55  1  0      
 20 56  1  0      
 21 57  1  0      
 21 58  1  0      
 21 59  1  0      
 27 22  1  0      
 29 22  2  0      
 28 23  1  0      
 23 60  1  0      
 24 61  1  0      
 24 62  1  0      
 24 63  1  0      
 25 64  1  0      
 25 65  1  0      
 25 66  1  0      
 28 27  2  0      
 30 27  1  0      
 28 67  1  0      
 31 29  1  0      
 29 68  1  0      
 32 30  2  0      
 30 33  1  0      
 31 32  1  0      
 33 69  1  0      
 33 70  1  0      
 33 71  1  0      
M  END
