
  Chem3D Core 15.001271611313D

 59 62  0  0  0  0  0  0  0  0999 V2000
   -3.5374    0.3585    4.8688 C   0  0  0  0  0  0  0  0  0  0  0  0
   -3.2509   -3.0592   -3.7520 C   0  0  0  0  0  0  0  0  0  0  0  0
   -3.2239   -2.0017   -2.9214 C   0  0  0  0  0  0  0  0  0  0  0  0
   -3.0247   -0.7845   -3.4575 C   0  0  0  0  0  0  0  0  0  0  0  0
   -2.8287   -0.5858   -4.7768 C   0  0  0  0  0  0  0  0  0  0  0  0
   -2.8602   -1.6730   -5.5696 C   0  0  0  0  0  0  0  0  0  0  0  0
   -3.0694   -2.8987   -5.0701 C   0  0  0  0  0  0  0  0  0  0  0  0
   -2.6179    0.6569   -5.3199 O   0  0  0  0  0  0  0  0  0  0  0  0
   -1.7607    1.4746   -4.6221 C   0  0  0  0  0  0  0  0  0  0  0  0
   -0.2869    3.1381   -3.2164 N   0  0  0  0  0  0  0  0  0  0  0  0
   -1.5393    3.2314   -3.3602 C   0  0  0  0  0  0  0  0  0  0  0  0
   -2.2902    2.4616   -4.0247 N   0  0  0  0  0  0  0  0  0  0  0  0
    0.2853    2.1700   -3.7983 C   0  0  0  0  0  0  0  0  0  0  0  0
   -0.4246    1.2972   -4.5312 C   0  0  0  0  0  0  0  0  0  0  0  0
    0.2402    0.2960   -5.1311 C   0  0  0  0  0  0  0  0  0  0  0  0
    1.5751    0.1116   -5.0418 C   0  0  0  0  0  0  0  0  0  0  0  0
    2.2808    0.9799   -4.2721 C   0  0  0  0  0  0  0  0  0  0  0  0
    1.6101    1.9948   -3.6905 C   0  0  0  0  0  0  0  0  0  0  0  0
    2.2162   -0.9420   -5.6505 O   0  0  0  0  0  0  0  0  0  0  0  0
    1.4685   -1.9742   -6.2512 C   0  0  0  0  0  0  0  0  0  0  0  0
    3.6453    0.9650   -4.0711 O   0  0  0  0  0  0  0  0  0  0  0  0
    4.5033    0.3704   -5.0160 C   0  0  0  0  0  0  0  0  0  0  0  0
   -3.4111   -2.2865   -1.6153 N   0  0  0  0  0  0  0  0  0  0  0  0
   -3.3757   -1.5279   -0.4781 C   0  0  0  0  0  0  0  0  0  0  0  0
   -3.0704   -0.3674   -0.4647 O   0  0  0  0  0  0  0  0  0  0  0  0
   -3.7119   -2.1992    0.6636 N   0  0  0  0  0  0  0  0  0  0  0  0
   -3.7599   -1.7730    1.9384 C   0  0  0  0  0  0  0  0  0  0  0  0
   -3.4966   -0.5801    2.4917 C   0  0  0  0  0  0  0  0  0  0  0  0
   -3.7070   -0.7209    3.8099 C   0  0  0  0  0  0  0  0  0  0  0  0
   -4.0621   -1.8728    4.0485 O   0  0  0  0  0  0  0  0  0  0  0  0
   -4.0956   -2.5235    2.9011 N   0  0  0  0  0  0  0  0  0  0  0  0
   -4.4740    1.5358    4.5144 C   0  0  0  0  0  0  0  0  0  0  0  0
   -3.8568   -0.1461    6.2359 C   0  0  0  0  0  0  0  0  0  0  0  0
   -2.0741    0.8542    4.8238 C   0  0  0  0  0  0  0  0  0  0  0  0
   -3.7118    0.7797    7.1429 F   0  0  0  0  0  0  0  0  0  0  0  0
   -3.0811   -1.1339    6.5865 F   0  0  0  0  0  0  0  0  0  0  0  0
   -5.0882   -0.5653    6.3272 F   0  0  0  0  0  0  0  0  0  0  0  0
   -3.4177   -4.0775   -3.3603 H   0  0  0  0  0  0  0  0  0  0  0  0
   -3.0218    0.1090   -2.8202 H   0  0  0  0  0  0  0  0  0  0  0  0
   -2.7106   -1.5540   -6.6561 H   0  0  0  0  0  0  0  0  0  0  0  0
   -3.0895   -3.7729   -5.7424 H   0  0  0  0  0  0  0  0  0  0  0  0
   -2.0308    4.0775   -2.8500 H   0  0  0  0  0  0  0  0  0  0  0  0
   -0.3522   -0.4041   -5.7357 H   0  0  0  0  0  0  0  0  0  0  0  0
    2.1862    2.7192   -3.0870 H   0  0  0  0  0  0  0  0  0  0  0  0
    2.1859   -2.7507   -6.5998 H   0  0  0  0  0  0  0  0  0  0  0  0
    0.7856   -2.4438   -5.5081 H   0  0  0  0  0  0  0  0  0  0  0  0
    0.9226   -1.5935   -7.1429 H   0  0  0  0  0  0  0  0  0  0  0  0
    5.5394    0.7096   -4.7899 H   0  0  0  0  0  0  0  0  0  0  0  0
    4.4969   -0.7364   -4.9150 H   0  0  0  0  0  0  0  0  0  0  0  0
    4.2459    0.7097   -6.0439 H   0  0  0  0  0  0  0  0  0  0  0  0
   -3.5845   -3.2749   -1.5002 H   0  0  0  0  0  0  0  0  0  0  0  0
   -3.9727   -3.1720    0.5970 H   0  0  0  0  0  0  0  0  0  0  0  0
   -3.1722    0.3397    1.9945 H   0  0  0  0  0  0  0  0  0  0  0  0
   -4.3948    2.3618    5.2566 H   0  0  0  0  0  0  0  0  0  0  0  0
   -4.2331    1.9771    3.5214 H   0  0  0  0  0  0  0  0  0  0  0  0
   -5.5394    1.2131    4.4813 H   0  0  0  0  0  0  0  0  0  0  0  0
   -1.3568    0.0252    5.0203 H   0  0  0  0  0  0  0  0  0  0  0  0
   -1.8104    1.2892    3.8338 H   0  0  0  0  0  0  0  0  0  0  0  0
   -1.8859    1.6492    5.5801 H   0  0  0  0  0  0  0  0  0  0  0  0
  1 29  1  0      
  1 32  1  0      
  1 33  1  0      
  1 34  1  0      
  2  3  1  0      
  2  7  2  0      
  2 38  1  0      
  3  4  2  0      
  3 23  1  0      
  4  5  1  0      
  4 39  1  0      
  5  6  2  0      
  5  8  1  0      
  6  7  1  0      
  6 40  1  0      
  7 41  1  0      
  8  9  1  0      
 12  9  1  0      
  9 14  2  0      
 10 11  1  0      
 13 10  2  0      
 11 12  2  0      
 11 42  1  0      
 13 14  1  0      
 18 13  1  0      
 14 15  1  0      
 15 16  2  0      
 15 43  1  0      
 17 16  1  0      
 16 19  1  0      
 17 18  2  0      
 17 21  1  0      
 18 44  1  0      
 19 20  1  0      
 20 45  1  0      
 20 46  1  0      
 20 47  1  0      
 21 22  1  0      
 22 48  1  0      
 22 49  1  0      
 22 50  1  0      
 23 24  1  0      
 23 51  1  0      
 24 25  2  0      
 24 26  1  0      
 26 27  1  0      
 26 52  1  0      
 27 28  1  0      
 31 27  2  0      
 29 28  2  0      
 28 53  1  0      
 29 30  1  0      
 30 31  1  0      
 32 54  1  0      
 32 55  1  0      
 32 56  1  0      
 33 35  1  0      
 33 36  1  0      
 33 37  1  0      
 34 57  1  0      
 34 58  1  0      
 34 59  1  0      
M  END
