
  Chem3D Core 15.003241614313D

 58 61  0  0  0  0  0  0  0  0999 V2000
   -4.1555   -7.3885    2.5942 N   0  0  0  0  0  0  0  0  0  0  0  0
   -2.9335   -6.8690    2.3032 C   0  0  0  0  0  0  0  0  0  0  0  0
   -2.9004   -5.5620    1.9036 C   0  0  0  0  0  0  0  0  0  0  0  0
   -4.0304   -4.8345    1.8202 C   0  0  0  0  0  0  0  0  0  0  0  0
   -4.0609   -3.6254    1.4568 N   0  0  0  0  0  0  0  0  0  0  0  0
   -2.9840   -3.0328    1.1443 C   0  0  0  0  0  0  0  0  0  0  0  0
   -3.1068   -1.8163    0.7851 N   0  0  0  0  0  0  0  0  0  0  0  0
   -2.3204   -0.8911    0.4009 C   0  0  0  0  0  0  0  0  0  0  0  0
   -2.8851    0.2927    0.1082 C   0  0  0  0  0  0  0  0  0  0  0  0
   -2.1580    1.3416   -0.3096 C   0  0  0  0  0  0  0  0  0  0  0  0
   -0.8180    1.2985   -0.4782 C   0  0  0  0  0  0  0  0  0  0  0  0
   -0.1264    2.3041   -0.8805 N   0  0  0  0  0  0  0  0  0  0  0  0
   -0.8062    3.6004   -1.1409 C   0  0  0  0  0  0  0  0  0  0  0  0
    0.0824    4.6821   -1.7783 C   0  0  0  0  0  0  0  0  0  0  0  0
    1.4435    4.6401   -1.2697 N   0  0  0  0  0  0  0  0  0  0  0  0
    2.3641    6.0018   -1.7116 S   0  0  0  0  0  0  0  0  0  0  0  0
    1.6875    7.2946   -1.7013 O   0  0  0  0  0  0  0  0  0  0  0  0
    3.2577    6.2038   -0.0939 C   0  0  0  0  0  0  0  0  0  0  0  0
    4.2381    7.3842   -0.0814 C   0  0  0  0  0  0  0  0  0  0  0  0
    3.5333    5.7735   -2.5530 O   0  0  0  0  0  0  0  0  0  0  0  0
    2.0498    3.3756   -1.6532 C   0  0  0  0  0  0  0  0  0  0  0  0
    1.3513    2.1796   -0.9851 C   0  0  0  0  0  0  0  0  0  0  0  0
   -0.2730    0.1025   -0.1642 C   0  0  0  0  0  0  0  0  0  0  0  0
   -0.9873   -0.9548    0.2568 C   0  0  0  0  0  0  0  0  0  0  0  0
   -1.8884   -3.6666    1.2047 N   0  0  0  0  0  0  0  0  0  0  0  0
   -1.7815   -4.8811    1.5618 C   0  0  0  0  0  0  0  0  0  0  0  0
   -0.6207   -5.4062    1.5793 N   0  0  0  0  0  0  0  0  0  0  0  0
    0.5982   -4.6851    1.2760 C   0  0  0  0  0  0  0  0  0  0  0  0
    1.5989   -5.5580    0.5694 C   0  0  0  0  0  0  0  0  0  0  0  0
    0.8346   -4.5076   -0.1985 C   0  0  0  0  0  0  0  0  0  0  0  0
   -2.0002   -7.6232    2.4263 O   0  0  0  0  0  0  0  0  0  0  0  0
   -4.1822   -8.3536    2.8881 H   0  0  0  0  0  0  0  0  0  0  0  0
   -5.0038   -6.8501    2.5235 H   0  0  0  0  0  0  0  0  0  0  0  0
   -5.0318   -5.2240    2.0609 H   0  0  0  0  0  0  0  0  0  0  0  0
   -4.1105   -1.4987    0.8108 H   0  0  0  0  0  0  0  0  0  0  0  0
   -3.9772    0.4283    0.2101 H   0  0  0  0  0  0  0  0  0  0  0  0
   -2.7504    2.2497   -0.5017 H   0  0  0  0  0  0  0  0  0  0  0  0
   -1.6702    3.4723   -1.8367 H   0  0  0  0  0  0  0  0  0  0  0  0
   -1.1698    4.0009   -0.1624 H   0  0  0  0  0  0  0  0  0  0  0  0
    0.0873    4.5495   -2.8881 H   0  0  0  0  0  0  0  0  0  0  0  0
   -0.3979    5.6729   -1.5881 H   0  0  0  0  0  0  0  0  0  0  0  0
    3.8103    5.2596    0.1246 H   0  0  0  0  0  0  0  0  0  0  0  0
    2.4963    6.3401    0.7105 H   0  0  0  0  0  0  0  0  0  0  0  0
    4.7479    7.4593    0.9068 H   0  0  0  0  0  0  0  0  0  0  0  0
    3.7196    8.3536   -0.2598 H   0  0  0  0  0  0  0  0  0  0  0  0
    5.0318    7.2689   -0.8542 H   0  0  0  0  0  0  0  0  0  0  0  0
    3.1319    3.3373   -1.3770 H   0  0  0  0  0  0  0  0  0  0  0  0
    2.0088    3.2526   -2.7633 H   0  0  0  0  0  0  0  0  0  0  0  0
    1.7647    2.0849    0.0492 H   0  0  0  0  0  0  0  0  0  0  0  0
    1.6427    1.2863   -1.5886 H   0  0  0  0  0  0  0  0  0  0  0  0
    0.8104   -0.0857   -0.2274 H   0  0  0  0  0  0  0  0  0  0  0  0
   -0.4238   -1.8721    0.4791 H   0  0  0  0  0  0  0  0  0  0  0  0
   -0.5186   -6.4056    1.8667 H   0  0  0  0  0  0  0  0  0  0  0  0
    0.8404   -3.9725    2.0601 H   0  0  0  0  0  0  0  0  0  0  0  0
    2.6513   -5.3689    0.7758 H   0  0  0  0  0  0  0  0  0  0  0  0
    1.3451   -6.6009    0.3856 H   0  0  0  0  0  0  0  0  0  0  0  0
    0.0685   -4.8472   -0.8938 H   0  0  0  0  0  0  0  0  0  0  0  0
    1.3723   -3.6122   -0.5064 H   0  0  0  0  0  0  0  0  0  0  0  0
  1  2  1  0      
  1 32  1  0      
  1 33  1  0      
  2  3  1  0      
  2 31  2  0      
  3  4  2  0      
 26  3  1  0      
  4  5  1  0      
  4 34  1  0      
  5  6  2  0      
  6  7  1  0      
  6 25  1  0      
  7  8  1  0      
  7 35  1  0      
  8  9  1  0      
  8 24  2  0      
  9 10  2  0      
  9 36  1  0      
 10 11  1  0      
 10 37  1  0      
 11 12  1  0      
 11 23  2  0      
 12 13  1  0      
 12 22  1  0      
 13 14  1  0      
 13 38  1  0      
 13 39  1  0      
 14 15  1  0      
 14 40  1  0      
 14 41  1  0      
 15 16  1  0      
 15 21  1  0      
 16 17  2  0      
 16 18  1  0      
 16 20  2  0      
 18 19  1  0      
 18 42  1  0      
 18 43  1  0      
 19 44  1  0      
 19 45  1  0      
 19 46  1  0      
 21 22  1  0      
 21 47  1  0      
 21 48  1  0      
 22 49  1  0      
 22 50  1  0      
 23 24  1  0      
 23 51  1  0      
 24 52  1  0      
 26 25  2  0      
 26 27  1  0      
 27 28  1  0      
 27 53  1  0      
 28 29  1  0      
 28 30  1  0      
 28 54  1  0      
 29 30  1  0      
 29 55  1  0      
 29 56  1  0      
 30 57  1  0      
 30 58  1  0      
M  END
