
  Chem3D Core 15.001261617433D

 51 53  0  0  0  0  0  0  0  0999 V2000
   -0.9056    0.9644   -1.1166 O   0  0  0  0  0  0  0  0  0  0  0  0
   -0.8469    0.2143   -0.1689 C   0  0  0  0  0  0  0  0  0  0  0  0
    0.1467    0.3586    0.7711 N   0  0  0  0  0  0  0  0  0  0  0  0
    1.3800    0.7349    0.4918 O   0  0  0  0  0  0  0  0  0  0  0  0
    2.2505   -0.3678    0.4904 C   0  0  0  0  0  0  0  0  0  0  0  0
    3.6463    0.0898    0.1134 C   0  0  0  0  0  0  0  0  0  0  0  0
    4.5154   -1.0246    0.1299 O   0  0  0  0  0  0  0  0  0  0  0  0
   -1.7512   -0.7748    0.1015 C   0  0  0  0  0  0  0  0  0  0  0  0
   -1.3055   -1.8357    0.8046 C   0  0  0  0  0  0  0  0  0  0  0  0
   -2.0222   -2.9581    0.9758 C   0  0  0  0  0  0  0  0  0  0  0  0
   -1.4321   -4.1562    1.7015 C   0  0  0  0  0  0  0  0  0  0  0  0
   -0.0018   -4.3255    1.4124 N   0  0  0  0  0  0  0  0  0  0  0  0
    0.8446   -3.9456    2.3539 O   0  0  0  0  0  0  0  0  0  0  0  0
    2.0719   -4.6190    2.3615 C   0  0  0  0  0  0  0  0  0  0  0  0
    2.7451   -4.4170    1.0116 C   0  0  0  0  0  0  0  0  0  0  0  0
    1.8351   -4.9949   -0.0738 C   0  0  0  0  0  0  0  0  0  0  0  0
    0.3792   -4.6004    0.1116 C   0  0  0  0  0  0  0  0  0  0  0  0
   -0.3900   -4.5592   -0.8188 O   0  0  0  0  0  0  0  0  0  0  0  0
   -3.2263   -3.0226    0.3862 C   0  0  0  0  0  0  0  0  0  0  0  0
   -3.9668   -4.1145    0.5145 F   0  0  0  0  0  0  0  0  0  0  0  0
   -3.7070   -1.9631   -0.2900 C   0  0  0  0  0  0  0  0  0  0  0  0
   -4.9264   -2.0636   -0.8115 F   0  0  0  0  0  0  0  0  0  0  0  0
   -3.0083   -0.8094   -0.3975 C   0  0  0  0  0  0  0  0  0  0  0  0
   -3.6989    0.0898   -0.9808 N   0  0  0  0  0  0  0  0  0  0  0  0
   -3.7396    1.3548   -1.1307 C   0  0  0  0  0  0  0  0  0  0  0  0
   -4.5829    1.7944   -2.0868 C   0  0  0  0  0  0  0  0  0  0  0  0
   -4.7120    3.0991   -2.3731 C   0  0  0  0  0  0  0  0  0  0  0  0
   -4.0143    4.0049   -1.6745 C   0  0  0  0  0  0  0  0  0  0  0  0
   -4.2227    6.1099   -2.1058 I   0  0  0  0  0  0  0  0  0  0  0  0
   -3.2290    3.5916   -0.6700 C   0  0  0  0  0  0  0  0  0  0  0  0
   -3.0938    2.2835   -0.3935 C   0  0  0  0  0  0  0  0  0  0  0  0
   -2.3967    1.9680    0.6879 F   0  0  0  0  0  0  0  0  0  0  0  0
   -0.0130   -0.1064    1.6535 H   0  0  0  0  0  0  0  0  0  0  0  0
    2.2561   -0.8267    1.5072 H   0  0  0  0  0  0  0  0  0  0  0  0
    1.8858   -1.1217   -0.2470 H   0  0  0  0  0  0  0  0  0  0  0  0
    3.6724    0.5213   -0.9122 H   0  0  0  0  0  0  0  0  0  0  0  0
    4.0431    0.8366    0.8369 H   0  0  0  0  0  0  0  0  0  0  0  0
    5.3921   -0.7522   -0.1504 H   0  0  0  0  0  0  0  0  0  0  0  0
   -0.2820   -1.8645    1.2064 H   0  0  0  0  0  0  0  0  0  0  0  0
   -1.5925   -3.9997    2.7939 H   0  0  0  0  0  0  0  0  0  0  0  0
   -1.9540   -5.1054    1.4419 H   0  0  0  0  0  0  0  0  0  0  0  0
    2.6947   -4.1904    3.1810 H   0  0  0  0  0  0  0  0  0  0  0  0
    1.8969   -5.6975    2.5802 H   0  0  0  0  0  0  0  0  0  0  0  0
    3.7448   -4.9115    0.9901 H   0  0  0  0  0  0  0  0  0  0  0  0
    2.9067   -3.3278    0.8313 H   0  0  0  0  0  0  0  0  0  0  0  0
    1.8717   -6.1099   -0.0369 H   0  0  0  0  0  0  0  0  0  0  0  0
    2.1897   -4.6802   -1.0831 H   0  0  0  0  0  0  0  0  0  0  0  0
   -4.5165   -0.3505   -1.4792 H   0  0  0  0  0  0  0  0  0  0  0  0
   -5.1742    1.0843   -2.6923 H   0  0  0  0  0  0  0  0  0  0  0  0
   -5.3921    3.4160   -3.1810 H   0  0  0  0  0  0  0  0  0  0  0  0
   -2.7044    4.3302   -0.0416 H   0  0  0  0  0  0  0  0  0  0  0  0
  1  2  2  0      
  2  3  1  0      
  2  8  1  0      
  3  4  1  0      
  3 33  1  0      
  4  5  1  0      
  5  6  1  0      
  5 34  1  0      
  5 35  1  0      
  6  7  1  0      
  6 36  1  0      
  6 37  1  0      
  7 38  1  0      
  8  9  1  0      
  8 23  2  0      
  9 10  2  0      
  9 39  1  0      
 10 11  1  0      
 10 19  1  0      
 11 12  1  0      
 11 40  1  0      
 11 41  1  0      
 12 13  1  0      
 12 17  1  0      
 13 14  1  0      
 14 15  1  0      
 14 42  1  0      
 14 43  1  0      
 15 16  1  0      
 15 44  1  0      
 15 45  1  0      
 16 17  1  0      
 16 46  1  0      
 16 47  1  0      
 17 18  2  0      
 19 20  1  0      
 19 21  2  0      
 21 22  1  0      
 21 23  1  0      
 23 24  1  0      
 24 25  1  0      
 24 48  1  0      
 25 26  1  0      
 25 31  2  0      
 26 27  2  0      
 26 49  1  0      
 27 28  1  0      
 27 50  1  0      
 28 29  1  0      
 28 30  2  0      
 30 31  1  0      
 30 51  1  0      
 31 32  1  0      
M  END
