
  Chem3D Core 15.011061513483D

  0  0  0     0  0              0 V3000
M  V30 BEGIN CTAB
M  V30 COUNTS 46 49 0 0 0
M  V30 BEGIN ATOM
M  V30 1 C 2.290504 -0.100963 -5.146821 0
M  V30 2 C 3.407219 0.315097 -4.544504 0
M  V30 3 C 3.468802 0.227951 -3.206014 0
M  V30 4 C 2.410312 -0.234828 -2.489741 0
M  V30 5 C 1.218759 -0.559431 -3.087935 0
M  V30 6 C 1.229282 -0.536008 -4.450645 0
M  V30 7 C 0.072970 -0.856837 -2.398932 0
M  V30 8 N -0.039156 -0.697749 -1.145171 0
M  V30 9 C -1.099389 -0.954119 -0.505650 0
M  V30 10 N -2.126250 -1.384770 -1.099308 0
M  V30 11 C -2.059652 -1.540939 -2.351987 0
M  V30 12 N -0.984171 -1.272965 -2.965691 0
M  V30 13 C 4.638641 0.609181 -2.648068 0
M  V30 14 C 4.820177 0.487278 -1.326100 0
M  V30 15 C 3.844615 -0.049948 -0.591630 0
M  V30 16 C 2.693408 -0.409035 -1.176911 0
M  V30 17 C 4.558392 0.813362 -5.389604 0
M  V30 18 O 5.800297 0.587128 -4.765797 0
M  V30 19 C 5.785025 1.149035 -3.474893 0
M  V30 20 Cl -0.076077 -0.920631 -5.543137 0
M  V30 21 N -3.070023 -1.965016 -2.991986 0
M  V30 22 S -1.086366 -0.660781 1.293510 0
M  V30 23 C -2.817879 -1.072345 1.677729 0
M  V30 24 C -3.060586 -0.862281 3.182781 0
M  V30 25 C -4.511116 -1.195028 3.572089 0
M  V30 26 C -4.819212 -1.002319 5.047760 0
M  V30 27 N -6.098684 -1.300297 5.400506 0
M  V30 28 O -4.036244 -0.620618 5.878389 0
M  V30 29 H 2.267629 -0.044055 -6.249342 0
M  V30 30 H 5.770989 0.776710 -0.850038 0
M  V30 31 H 4.008496 -0.218183 0.487133 0
M  V30 32 H 2.035608 -0.910576 -0.457622 0
M  V30 33 H 4.599010 0.287391 -6.371147 0
M  V30 34 H 4.435743 1.902406 -5.590127 0
M  V30 35 H 6.769574 0.904541 -3.013822 0
M  V30 36 H 5.709822 2.257976 -3.550245 0
M  V30 37 H -3.017323 -2.094807 -4.032368 0
M  V30 38 H -3.964169 -2.188696 -2.489714 0
M  V30 39 H -3.515052 -0.419273 1.101877 0
M  V30 40 H -3.037900 -2.134158 1.416633 0
M  V30 41 H -2.369622 -1.512648 3.772006 0
M  V30 42 H -2.847409 0.199886 3.454804 0
M  V30 43 H -5.208607 -0.547386 2.989736 0
M  V30 44 H -4.729453 -2.257976 3.312233 0
M  V30 45 H -6.355122 -1.188626 6.371147 0
M  V30 46 H -6.769574 -1.622008 4.717182 0
M  V30 END ATOM
M  V30 BEGIN BOND
M  V30 1 1 2 1
M  V30 2 2 1 6
M  V30 3 1 1 29
M  V30 4 2 2 3
M  V30 5 1 17 2
M  V30 6 1 4 3
M  V30 7 1 13 3
M  V30 8 2 5 4
M  V30 9 1 4 16
M  V30 10 1 6 5
M  V30 11 1 5 7
M  V30 12 1 6 20
M  V30 13 1 7 8
M  V30 14 2 7 12
M  V30 15 2 8 9
M  V30 16 1 9 10
M  V30 17 1 9 22
M  V30 18 2 10 11
M  V30 19 1 11 12
M  V30 20 1 11 21
M  V30 21 2 14 13
M  V30 22 1 19 13
M  V30 23 1 15 14
M  V30 24 1 14 30
M  V30 25 2 16 15
M  V30 26 1 15 31
M  V30 27 1 16 32
M  V30 28 1 18 17
M  V30 29 1 17 33
M  V30 30 1 17 34
M  V30 31 1 19 18
M  V30 32 1 19 35
M  V30 33 1 19 36
M  V30 34 1 21 37
M  V30 35 1 21 38
M  V30 36 1 22 23
M  V30 37 1 23 24
M  V30 38 1 23 39
M  V30 39 1 23 40
M  V30 40 1 24 25
M  V30 41 1 24 41
M  V30 42 1 24 42
M  V30 43 1 25 26
M  V30 44 1 25 43
M  V30 45 1 25 44
M  V30 46 1 26 27
M  V30 47 2 26 28
M  V30 48 1 27 45
M  V30 49 1 27 46
M  V30 END BOND
M  V30 END CTAB
M  END
