
  Chem3D Core 15.008111512223D

 48 49  0  0  0  0  0  0  0  0999 V2000
    4.6811    1.5991   -2.6676 C   0  0  0  0  0  0  0  0  0  0  0  0
    3.3576    1.8794   -2.3854 C   0  0  0  0  0  0  0  0  0  0  0  0
    2.4284    0.8580   -2.5386 C   0  0  0  0  0  0  0  0  0  0  0  0
    5.1253    0.3925   -3.0830 N   0  0  0  0  0  0  0  0  0  0  0  0
    4.2234   -0.5949   -3.2305 C   0  0  0  0  0  0  0  0  0  0  0  0
    2.8491   -0.4079   -2.9676 C   0  0  0  0  0  0  0  0  0  0  0  0
    4.6439   -1.8481   -3.6558 C   0  0  0  0  0  0  0  0  0  0  0  0
    1.9440   -1.4708   -3.1364 C   0  0  0  0  0  0  0  0  0  0  0  0
    2.3945   -2.7179   -3.5645 C   0  0  0  0  0  0  0  0  0  0  0  0
    3.7470   -2.9075   -3.8248 C   0  0  0  0  0  0  0  0  0  0  0  0
    4.3156   -4.4412   -4.3534 Cl  0  0  0  0  0  0  0  0  0  0  0  0
    1.2051    1.0703   -2.2914 N   0  0  0  0  0  0  0  0  0  0  0  0
    0.7660    2.3991   -1.8414 C   0  0  0  0  0  0  0  0  0  0  0  0
    1.1116    3.4351   -2.9030 C   0  0  0  0  0  0  0  0  0  0  0  0
   -0.7403    2.3863   -1.6170 C   0  0  0  0  0  0  0  0  0  0  0  0
   -1.0408    2.7311   -0.1643 C   0  0  0  0  0  0  0  0  0  0  0  0
   -2.5471    2.7182    0.0601 C   0  0  0  0  0  0  0  0  0  0  0  0
   -2.8309    3.0438    1.4317 N   0  0  0  0  0  0  0  0  0  0  0  0
   -4.2588    3.0207    1.6001 C   0  0  0  0  0  0  0  0  0  0  0  0
   -4.6061    3.3611    3.0434 C   0  0  0  0  0  0  0  0  0  0  0  0
   -2.2769    2.0009    2.2522 C   0  0  0  0  0  0  0  0  0  0  0  0
   -2.5550    2.3057    3.7183 C   0  0  0  0  0  0  0  0  0  0  0  0
    5.4175    2.4072   -2.5468 H   0  0  0  0  0  0  0  0  0  0  0  0
    3.0493    2.8806   -2.0498 H   0  0  0  0  0  0  0  0  0  0  0  0
    5.7113   -2.0119   -3.8654 H   0  0  0  0  0  0  0  0  0  0  0  0
    0.8747   -1.3169   -2.9294 H   0  0  0  0  0  0  0  0  0  0  0  0
    1.6842   -3.5475   -3.6958 H   0  0  0  0  0  0  0  0  0  0  0  0
    0.5041    0.2973   -2.4076 H   0  0  0  0  0  0  0  0  0  0  0  0
    1.2817    2.6574   -0.8895 H   0  0  0  0  0  0  0  0  0  0  0  0
    0.7792    4.4412   -2.5623 H   0  0  0  0  0  0  0  0  0  0  0  0
    2.2124    3.4446   -3.0670 H   0  0  0  0  0  0  0  0  0  0  0  0
    0.5960    3.1769   -3.8549 H   0  0  0  0  0  0  0  0  0  0  0  0
   -1.2205    3.1376   -2.2831 H   0  0  0  0  0  0  0  0  0  0  0  0
   -1.1410    1.3740   -1.8484 H   0  0  0  0  0  0  0  0  0  0  0  0
   -0.5606    1.9798    0.5018 H   0  0  0  0  0  0  0  0  0  0  0  0
   -0.6401    3.7433    0.0671 H   0  0  0  0  0  0  0  0  0  0  0  0
   -3.0274    3.4695   -0.6060 H   0  0  0  0  0  0  0  0  0  0  0  0
   -2.9479    1.7060   -0.1713 H   0  0  0  0  0  0  0  0  0  0  0  0
   -4.7242    3.7694    0.9206 H   0  0  0  0  0  0  0  0  0  0  0  0
   -4.6447    2.0058    1.3553 H   0  0  0  0  0  0  0  0  0  0  0  0
   -5.7113    3.3432    3.1738 H   0  0  0  0  0  0  0  0  0  0  0  0
   -4.1407    2.6124    3.7229 H   0  0  0  0  0  0  0  0  0  0  0  0
   -4.2202    4.3760    3.2882 H   0  0  0  0  0  0  0  0  0  0  0  0
   -1.1776    1.9445    2.0876 H   0  0  0  0  0  0  0  0  0  0  0  0
   -2.7440    1.0279    1.9807 H   0  0  0  0  0  0  0  0  0  0  0  0
   -2.1262    1.4985    4.3534 H   0  0  0  0  0  0  0  0  0  0  0  0
   -3.6543    2.3621    3.8829 H   0  0  0  0  0  0  0  0  0  0  0  0
   -2.0879    3.2788    3.9898 H   0  0  0  0  0  0  0  0  0  0  0  0
  1  2  1  0      
  1  4  2  0      
  1 23  1  0      
  2  3  2  0      
  2 24  1  0      
  3  6  1  0      
  3 12  1  0      
  5  4  1  0      
  6  5  1  0      
  7  5  2  0      
  6  8  2  0      
 10  7  1  0      
  7 25  1  0      
  8  9  1  0      
  8 26  1  0      
  9 10  2  0      
  9 27  1  0      
 10 11  1  0      
 12 13  1  0      
 12 28  1  0      
 13 14  1  0      
 13 15  1  0      
 13 29  1  0      
 14 30  1  0      
 14 31  1  0      
 14 32  1  0      
 15 16  1  0      
 15 33  1  0      
 15 34  1  0      
 16 17  1  0      
 16 35  1  0      
 16 36  1  0      
 17 18  1  0      
 17 37  1  0      
 17 38  1  0      
 18 19  1  0      
 18 21  1  0      
 19 20  1  0      
 19 39  1  0      
 19 40  1  0      
 20 41  1  0      
 20 42  1  0      
 20 43  1  0      
 21 22  1  0      
 21 44  1  0      
 21 45  1  0      
 22 46  1  0      
 22 47  1  0      
 22 48  1  0      
M  END
