
  Chem3D Core 15.003291610473D

 33 35  0  0  0  0  0  0  0  0999 V2000
    2.2974   -2.2791    3.4365 O   0  0  0  0  0  0  0  0  0  0  0  0
    1.7382   -1.3610    2.8958 C   0  0  0  0  0  0  0  0  0  0  0  0
    2.3277   -0.5551    1.9674 N   0  0  0  0  0  0  0  0  0  0  0  0
    1.4740    0.4873    1.4114 C   0  0  0  0  0  0  0  0  0  0  0  0
    0.2501    0.1813    2.2158 C   0  0  0  0  0  0  0  0  0  0  0  0
    0.4783   -0.8689    3.0195 C   0  0  0  0  0  0  0  0  0  0  0  0
   -0.4762   -1.3304    3.8387 C   0  0  0  0  0  0  0  0  0  0  0  0
   -1.6662   -0.7046    3.8358 C   0  0  0  0  0  0  0  0  0  0  0  0
   -1.8888    0.3577    3.0406 C   0  0  0  0  0  0  0  0  0  0  0  0
   -0.9278    0.8175    2.2217 C   0  0  0  0  0  0  0  0  0  0  0  0
    1.9343    1.7848    1.7712 O   0  0  0  0  0  0  0  0  0  0  0  0
    1.3842    0.3253   -0.0874 C   0  0  0  0  0  0  0  0  0  0  0  0
    2.4473    0.6480   -0.8437 C   0  0  0  0  0  0  0  0  0  0  0  0
    2.4136    0.5097   -2.1771 C   0  0  0  0  0  0  0  0  0  0  0  0
    1.3107    0.0366   -2.7785 C   0  0  0  0  0  0  0  0  0  0  0  0
    0.2370   -0.3102   -2.0431 C   0  0  0  0  0  0  0  0  0  0  0  0
    0.2955   -0.1648   -0.7067 C   0  0  0  0  0  0  0  0  0  0  0  0
   -1.2663   -0.9378   -2.7813 S   0  0  0  0  0  0  0  0  0  0  0  0
   -2.1848    0.0628   -3.3349 O   0  0  0  0  0  0  0  0  0  0  0  0
   -1.2481   -2.3341   -3.2297 O   0  0  0  0  0  0  0  0  0  0  0  0
   -2.5179   -1.3804   -1.7169 N   0  0  0  0  0  0  0  0  0  0  0  0
    1.3124   -0.1175   -4.5014 Cl  0  0  0  0  0  0  0  0  0  0  0  0
    3.2930   -0.6785    1.6851 H   0  0  0  0  0  0  0  0  0  0  0  0
   -0.2975   -2.1932    4.5001 H   0  0  0  0  0  0  0  0  0  0  0  0
   -2.4694   -1.0636    4.5014 H   0  0  0  0  0  0  0  0  0  0  0  0
   -2.8709    0.8595    3.0608 H   0  0  0  0  0  0  0  0  0  0  0  0
   -1.0992    1.6879    1.5691 H   0  0  0  0  0  0  0  0  0  0  0  0
    1.1699    2.3630    1.8093 H   0  0  0  0  0  0  0  0  0  0  0  0
    3.3662    1.0314   -0.3698 H   0  0  0  0  0  0  0  0  0  0  0  0
    3.3034    0.7894   -2.7663 H   0  0  0  0  0  0  0  0  0  0  0  0
   -0.5712   -0.4651   -0.0994 H   0  0  0  0  0  0  0  0  0  0  0  0
   -3.3662   -0.8607   -1.9371 H   0  0  0  0  0  0  0  0  0  0  0  0
   -2.7560   -2.3630   -1.8444 H   0  0  0  0  0  0  0  0  0  0  0  0
  1  2  2  0      
  3  2  1  0      
  6  2  1  0      
  3  4  1  0      
  3 23  1  0      
  4  5  1  0      
  4 11  1  0      
  4 12  1  0      
  5  6  2  0      
  5 10  1  0      
  7  6  1  0      
  8  7  2  0      
  7 24  1  0      
  9  8  1  0      
  8 25  1  0      
 10  9  2  0      
  9 26  1  0      
 10 27  1  0      
 11 28  1  0      
 12 13  1  0      
 12 17  2  0      
 13 14  2  0      
 13 29  1  0      
 14 15  1  0      
 14 30  1  0      
 15 16  2  0      
 15 22  1  0      
 16 17  1  0      
 16 18  1  0      
 17 31  1  0      
 18 19  2  0      
 18 20  2  0      
 18 21  1  0      
 21 32  1  0      
 21 33  1  0      
M  END
