
  Chem3D Core 15.011251515313D

 74 77  0  0  0  0  0  0  0  0999 V2000
   -4.5530   -1.2519    0.5378 C   0  0  0  0  0  0  0  0  0  0  0  0
   -5.9481   -1.9015    0.6093 C   0  0  0  0  0  0  0  0  0  0  0  0
   -6.9878   -1.2522   -0.3065 C   0  0  0  0  0  0  0  0  0  0  0  0
   -6.5217    0.0845   -0.8653 C   0  0  0  0  0  0  0  0  0  0  0  0
   -5.1430    0.0502   -1.4866 C   0  0  0  0  0  0  0  0  0  0  0  0
   -4.8256    0.9261   -2.4544 C   0  0  0  0  0  0  0  0  0  0  0  0
   -3.4356    1.1623   -2.9806 C   0  0  0  0  0  0  0  0  0  0  0  0
   -2.3407    0.3123   -2.3128 C   0  0  0  0  0  0  0  0  0  0  0  0
   -2.7496   -0.0956   -0.8785 C   0  0  0  0  0  0  0  0  0  0  0  0
   -4.0970   -0.8784   -0.8897 C   0  0  0  0  0  0  0  0  0  0  0  0
   -1.5952   -0.7919   -0.1246 C   0  0  0  0  0  0  0  0  0  0  0  0
   -0.2519   -0.0403   -0.2032 C   0  0  0  0  0  0  0  0  0  0  0  0
    0.1695    0.2379   -1.6596 C   0  0  0  0  0  0  0  0  0  0  0  0
   -0.9949    1.0494   -2.2785 C   0  0  0  0  0  0  0  0  0  0  0  0
   -0.4257    1.5709   -3.6002 C   0  0  0  0  0  0  0  0  0  0  0  0
    1.0408    1.8908   -3.2505 C   0  0  0  0  0  0  0  0  0  0  0  0
    1.3260    1.2543   -1.8655 C   0  0  0  0  0  0  0  0  0  0  0  0
    0.4607   -1.0871   -2.3904 C   0  0  0  0  0  0  0  0  0  0  0  0
   -4.0029   -2.1600   -1.7488 C   0  0  0  0  0  0  0  0  0  0  0  0
    2.8147    0.9011   -1.6157 C   0  0  0  0  0  0  0  0  0  0  0  0
    3.4797   -0.0880   -2.5914 C   0  0  0  0  0  0  0  0  0  0  0  0
    3.0753    0.4821   -0.1527 C   0  0  0  0  0  0  0  0  0  0  0  0
    4.5515    0.5561    0.2769 C   0  0  0  0  0  0  0  0  0  0  0  0
    4.7281    0.2099    1.7656 C   0  0  0  0  0  0  0  0  0  0  0  0
    6.1978    0.1474    2.2280 C   0  0  0  0  0  0  0  0  0  0  0  0
    6.2756   -0.3680    3.6767 C   0  0  0  0  0  0  0  0  0  0  0  0
    6.9041    1.5094    2.1225 C   0  0  0  0  0  0  0  0  0  0  0  0
   -2.2018   -0.6020   -2.9317 H   0  0  0  0  0  0  0  0  0  0  0  0
   -2.9301    0.8575   -0.3167 H   0  0  0  0  0  0  0  0  0  0  0  0
   -1.1624    1.9567   -1.6415 H   0  0  0  0  0  0  0  0  0  0  0  0
    1.1110    2.0730   -1.1267 H   0  0  0  0  0  0  0  0  0  0  0  0
   -7.3160   -2.1078   -1.3767 O   0  0  0  0  0  0  0  0  0  0  0  0
   -3.8259   -1.9534    1.0089 H   0  0  0  0  0  0  0  0  0  0  0  0
   -4.5539   -0.3269    1.1632 H   0  0  0  0  0  0  0  0  0  0  0  0
   -6.2989   -1.8446    1.6686 H   0  0  0  0  0  0  0  0  0  0  0  0
   -5.8787   -2.9924    0.3887 H   0  0  0  0  0  0  0  0  0  0  0  0
   -7.9457   -1.1113    0.2511 H   0  0  0  0  0  0  0  0  0  0  0  0
   -7.2779    0.4789   -1.5831 H   0  0  0  0  0  0  0  0  0  0  0  0
   -6.4730    0.8147   -0.0216 H   0  0  0  0  0  0  0  0  0  0  0  0
   -5.6056    1.6080   -2.8345 H   0  0  0  0  0  0  0  0  0  0  0  0
   -3.2286    2.2410   -2.7816 H   0  0  0  0  0  0  0  0  0  0  0  0
   -3.4230    1.0244   -4.0868 H   0  0  0  0  0  0  0  0  0  0  0  0
   -1.4539   -1.8259   -0.5084 H   0  0  0  0  0  0  0  0  0  0  0  0
   -1.8539   -0.8978    0.9556 H   0  0  0  0  0  0  0  0  0  0  0  0
    0.5264   -0.6382    0.3219 H   0  0  0  0  0  0  0  0  0  0  0  0
   -0.3449    0.9179    0.3602 H   0  0  0  0  0  0  0  0  0  0  0  0
   -0.9725    2.4618   -3.9842 H   0  0  0  0  0  0  0  0  0  0  0  0
   -0.4890    0.7732   -4.3761 H   0  0  0  0  0  0  0  0  0  0  0  0
    1.2134    2.9924   -3.2134 H   0  0  0  0  0  0  0  0  0  0  0  0
    1.6972    1.4963   -4.0557 H   0  0  0  0  0  0  0  0  0  0  0  0
    1.1950   -1.6949   -1.8186 H   0  0  0  0  0  0  0  0  0  0  0  0
   -0.4292   -1.7390   -2.5058 H   0  0  0  0  0  0  0  0  0  0  0  0
    0.8640   -0.9288   -3.4137 H   0  0  0  0  0  0  0  0  0  0  0  0
   -4.9242   -2.7747   -1.7136 H   0  0  0  0  0  0  0  0  0  0  0  0
   -3.8476   -1.9482   -2.8284 H   0  0  0  0  0  0  0  0  0  0  0  0
   -3.1846   -2.8302   -1.4082 H   0  0  0  0  0  0  0  0  0  0  0  0
    3.3538    1.8740   -1.7693 H   0  0  0  0  0  0  0  0  0  0  0  0
    4.5896   -0.0145   -2.5434 H   0  0  0  0  0  0  0  0  0  0  0  0
    3.2184    0.0970   -3.6541 H   0  0  0  0  0  0  0  0  0  0  0  0
    3.2324   -1.1455   -2.3605 H   0  0  0  0  0  0  0  0  0  0  0  0
    2.4904    1.1426    0.5309 H   0  0  0  0  0  0  0  0  0  0  0  0
    2.7123   -0.5604   -0.0021 H   0  0  0  0  0  0  0  0  0  0  0  0
    5.1620   -0.1533   -0.3286 H   0  0  0  0  0  0  0  0  0  0  0  0
    4.9311    1.5855    0.0800 H   0  0  0  0  0  0  0  0  0  0  0  0
    4.1765    0.9517    2.3899 H   0  0  0  0  0  0  0  0  0  0  0  0
    4.2554   -0.7851    1.9491 H   0  0  0  0  0  0  0  0  0  0  0  0
    6.7429   -0.5824    1.5772 H   0  0  0  0  0  0  0  0  0  0  0  0
    7.3320   -0.4571    4.0186 H   0  0  0  0  0  0  0  0  0  0  0  0
    5.8120   -1.3761    3.7749 H   0  0  0  0  0  0  0  0  0  0  0  0
    5.7482    0.3197    4.3761 H   0  0  0  0  0  0  0  0  0  0  0  0
    7.9457    1.4527    2.5131 H   0  0  0  0  0  0  0  0  0  0  0  0
    6.9783    1.8593    1.0689 H   0  0  0  0  0  0  0  0  0  0  0  0
    6.3641    2.2879    2.7077 H   0  0  0  0  0  0  0  0  0  0  0  0
   -7.6564   -2.9358   -1.0299 H   0  0  0  0  0  0  0  0  0  0  0  0
  2  1  1  0      
  1 10  1  0      
  1 33  1  0      
  1 34  1  0      
  3  2  1  0      
  2 35  1  0      
  2 36  1  0      
  4  3  1  0      
  3 32  1  0      
  3 37  1  0      
  5  4  1  0      
  4 38  1  0      
  4 39  1  0      
  6  5  2  0      
  5 10  1  0      
  7  6  1  0      
  6 40  1  0      
  8  7  1  0      
  7 41  1  0      
  7 42  1  0      
  8  9  1  0      
 14  8  1  0      
  8 28  1  0      
 10  9  1  0      
  9 11  1  0      
  9 29  1  0      
 10 19  1  0      
 11 12  1  0      
 11 43  1  0      
 11 44  1  0      
 12 13  1  0      
 12 45  1  0      
 12 46  1  0      
 14 13  1  0      
 17 13  1  0      
 13 18  1  0      
 15 14  1  0      
 14 30  1  0      
 16 15  1  0      
 15 47  1  0      
 15 48  1  0      
 17 16  1  0      
 16 49  1  0      
 16 50  1  0      
 17 20  1  0      
 17 31  1  0      
 18 51  1  0      
 18 52  1  0      
 18 53  1  0      
 19 54  1  0      
 19 55  1  0      
 19 56  1  0      
 20 21  1  0      
 20 22  1  0      
 20 57  1  0      
 21 58  1  0      
 21 59  1  0      
 21 60  1  0      
 22 23  1  0      
 22 61  1  0      
 22 62  1  0      
 23 24  1  0      
 23 63  1  0      
 23 64  1  0      
 24 25  1  0      
 24 65  1  0      
 24 66  1  0      
 25 26  1  0      
 25 27  1  0      
 25 67  1  0      
 26 68  1  0      
 26 69  1  0      
 26 70  1  0      
 27 71  1  0      
 27 72  1  0      
 27 73  1  0      
 32 74  1  0      
M  END
