
  Chem3D Core 15.005021613153D

  0  0  0     0  0              0 V3000
M  V30 BEGIN CTAB
M  V30 COUNTS 196 196 0 0 0
M  V30 BEGIN ATOM
M  V30 1 C 0.579341 4.263951 2.107922 0
M  V30 2 N -0.807265 3.979571 1.705992 0
M  V30 3 C 1.130319 3.246765 3.103492 0
M  V30 4 C 0.818722 5.743754 2.457644 0
M  V30 5 C -1.060189 3.297520 0.535339 0
M  V30 6 C -1.802618 4.339516 2.709872 0
M  V30 7 N 1.104548 1.953785 2.657802 0
M  V30 8 O 1.573824 3.561638 4.179385 0
M  V30 9 C 2.283025 6.215717 2.364084 0
M  V30 10 O 0.006132 6.531566 1.616473 0
M  V30 11 C -2.329444 3.613685 -0.288772 0
M  V30 12 O -0.234860 2.549226 0.069442 0
M  V30 13 C 1.641515 0.825867 3.435744 0
M  V30 14 C 2.926969 6.109367 0.962973 0
M  V30 15 C 2.431507 7.644381 2.924168 0
M  V30 16 N -2.514457 2.683617 -1.425060 0
M  V30 17 C 2.414672 -0.115227 2.504166 0
M  V30 18 C 0.495925 0.144158 4.207114 0
M  V30 19 C 2.116334 6.778860 -0.117972 0
M  V30 20 C -2.708479 1.309928 -1.394450 0
M  V30 21 C -2.261617 3.317509 -2.726998 0
M  V30 22 N 3.568694 0.375386 1.930992 0
M  V30 23 O 2.018839 -1.229102 2.265185 0
M  V30 24 C 0.975755 -0.888235 5.237218 0
M  V30 25 C 1.385033 6.109735 -1.023019 0
M  V30 26 C -3.187405 0.553102 -0.124868 0
M  V30 27 O -2.557068 0.642865 -2.390537 0
M  V30 28 C 4.286062 -0.413073 0.922830 0
M  V30 29 C 4.067395 1.735382 2.125875 0
M  V30 30 C 0.517647 6.767027 -2.061569 0
M  V30 31 N -2.359070 -0.651720 0.056640 0
M  V30 32 C -3.546105 1.293503 1.174666 0
M  V30 33 C 3.603927 -0.245276 -0.438517 0
M  V30 34 C -2.611022 -1.908639 -0.470776 0
M  V30 35 C -1.037233 -0.372753 0.610080 0
M  V30 36 C -4.192930 0.494306 2.324294 0
M  V30 37 N 4.141254 -0.953025 -1.495422 0
M  V30 38 O 2.658958 0.498632 -0.555891 0
M  V30 39 C -4.021606 -2.280615 -0.985849 0
M  V30 40 O -1.754232 -2.758647 -0.521928 0
M  V30 41 C -3.166287 -0.029013 3.341092 0
M  V30 42 C -5.229412 1.353605 3.075044 0
M  V30 43 C 3.669722 -0.743710 -2.873311 0
M  V30 44 C 5.188450 -1.958511 -1.323209 0
M  V30 45 N -5.133542 -2.085395 -0.039118 0
M  V30 46 C -4.161149 -1.979018 -2.500039 0
M  V30 47 C 2.687140 -1.811335 -3.374116 0
M  V30 48 C 4.774727 -0.446015 -3.914560 0
M  V30 49 C -5.250485 -2.729071 1.186231 0
M  V30 50 C -6.257688 -1.257271 -0.482989 0
M  V30 51 C -4.866672 -3.021956 -3.400104 0
M  V30 52 N 2.653476 -2.980178 -2.658509 0
M  V30 53 O 2.000037 -1.627734 -4.350802 0
M  V30 54 C 5.424691 0.951960 -3.819413 0
M  V30 55 C -4.015114 -3.411065 1.808323 0
M  V30 56 O -6.274670 -2.662382 1.826236 0
M  V30 57 C -4.072298 -4.334917 -3.532566 0
M  V30 58 C -6.315885 -3.322888 -2.996118 0
M  V30 59 C 1.753526 -4.091564 -3.015617 0
M  V30 60 C 6.241631 1.163096 -2.535222 0
M  V30 61 C 6.330920 1.192899 -5.042285 0
M  V30 62 N -3.190250 -4.294629 0.981309 0
M  V30 63 C -4.283303 -4.074023 3.170980 0
M  V30 64 C 1.367504 -4.987954 -1.820987 0
M  V30 65 C 2.361730 -4.845803 -4.226779 0
M  V30 66 C -3.646315 -5.438913 0.400260 0
M  V30 67 N 1.253517 -4.400419 -0.577791 0
M  V30 68 O 1.152735 -6.166566 -1.965689 0
M  V30 69 C 1.350078 -5.693178 -5.019104 0
M  V30 70 C 3.612792 -5.654833 -3.845188 0
M  V30 71 C -2.563668 -6.318451 -0.233678 0
M  V30 72 O -4.815734 -5.730776 0.385274 0
M  V30 73 C 1.014276 -5.211733 0.629439 0
M  V30 74 C 1.222044 -2.961826 -0.358049 0
M  V30 75 N -1.191060 -5.780166 -0.253455 0
M  V30 76 C -2.592814 -7.749678 0.323590 0
M  V30 77 C -0.476336 -5.478407 0.874372 0
M  V30 78 O -0.978133 -5.459525 1.970002 0
M  V30 79 C -3.586469 4.419853 0.134711 0
M  V30 80 C -4.822665 4.126339 -0.747179 0
M  V30 81 C -3.380091 5.953344 0.080550 0
M  V30 82 C 1.790404 -4.789654 1.898035 0
M  V30 83 C 3.313988 -4.616918 1.723810 0
M  V30 84 C 3.954979 -4.181627 3.054166 0
M  V30 85 C 4.005222 -5.883404 1.193376 0
M  V30 86 H 1.223977 4.103703 1.212367 0
M  V30 87 H 0.450605 5.931884 3.493937 0
M  V30 88 H -1.343588 4.397522 3.721423 0
M  V30 89 H -2.264730 5.328188 2.515577 0
M  V30 90 H -2.584194 3.559988 2.816765 0
M  V30 91 H 0.698926 1.761655 1.739927 0
M  V30 92 H 2.889061 5.560213 3.041846 0
M  V30 93 H 0.447394 7.341426 1.360200 0
M  V30 94 H -1.768398 4.471832 -0.753947 0
M  V30 95 H 2.372160 1.173114 4.202535 0
M  V30 96 H 3.945334 6.563640 0.969977 0
M  V30 97 H 3.096440 5.039933 0.701270 0
M  V30 98 H 3.498758 7.962854 2.943658 0
M  V30 99 H 2.053711 7.710689 3.970009 0
M  V30 100 H 1.872270 8.391797 2.319381 0
M  V30 101 H -0.206083 -0.339260 3.491519 0
M  V30 102 H -0.090224 0.926625 4.747990 0
M  V30 103 H 2.100833 7.881102 -0.121966 0
M  V30 104 H -2.455474 4.412557 -2.740236 0
M  V30 105 H -1.204779 3.144745 -3.034662 0
M  V30 106 H -2.938699 2.905693 -3.509045 0
M  V30 107 H 0.110938 -1.335971 5.779176 0
M  V30 108 H 1.641797 -0.417936 5.996106 0
M  V30 109 H 1.537322 -1.724610 4.764943 0
M  V30 110 H 1.382520 5.006933 -1.012729 0
M  V30 111 H -4.188739 0.213156 -0.479053 0
M  V30 112 H 5.347953 -0.091554 0.835779 0
M  V30 113 H 4.311645 -1.480513 1.232758 0
M  V30 114 H 5.077957 1.887091 1.688141 0
M  V30 115 H 3.399319 2.471298 1.626292 0
M  V30 116 H 4.167584 1.983124 3.204979 0
M  V30 117 H 0.566253 7.877718 -2.013192 0
M  V30 118 H 0.833996 6.450896 -3.081410 0
M  V30 119 H -0.544233 6.464306 -1.912949 0
M  V30 120 H -2.671038 1.826449 1.588348 0
M  V30 121 H -4.297722 2.058393 0.890549 0
M  V30 122 H -1.008193 0.541725 1.232076 0
M  V30 123 H -0.722313 -1.190501 1.293543 0
M  V30 124 H -0.287940 -0.265716 -0.206372 0
M  V30 125 H -4.742434 -0.371189 1.892684 0
M  V30 126 H -3.978844 -3.393303 -1.055003 0
M  V30 127 H -3.658776 -0.618959 4.147158 0
M  V30 128 H -2.423055 -0.701171 2.866197 0
M  V30 129 H -2.612004 0.807953 3.822796 0
M  V30 130 H -5.702973 0.782758 3.906091 0
M  V30 131 H -6.052655 1.683873 2.400842 0
M  V30 132 H -4.756061 2.262922 3.510614 0
M  V30 133 H 3.039800 0.180086 -2.905295 0
M  V30 134 H 5.354061 -2.568078 -2.236712 0
M  V30 135 H 6.153976 -1.480715 -1.046171 0
M  V30 136 H 4.909173 -2.695577 -0.539469 0
M  V30 137 H -4.587015 -0.971350 -2.688782 0
M  V30 138 H -3.127171 -1.909498 -2.919974 0
M  V30 139 H 5.567167 -1.225805 -3.907257 0
M  V30 140 H 4.313932 -0.515212 -4.929941 0
M  V30 141 H -6.083511 -0.673602 -1.405241 0
M  V30 142 H -7.164484 -1.882992 -0.639514 0
M  V30 143 H -6.506102 -0.497861 0.292604 0
M  V30 144 H -4.904470 -2.577971 -4.430838 0
M  V30 145 H 3.298332 -3.107055 -1.879887 0
M  V30 146 H 4.613938 1.723775 -3.845916 0
M  V30 147 H -3.347137 -2.545481 2.039021 0
M  V30 148 H -4.492414 -4.977093 -4.340180 0
M  V30 149 H -3.002842 -4.149106 -3.781656 0
M  V30 150 H -4.107866 -4.935365 -2.598504 0
M  V30 151 H -6.366783 -3.783438 -1.984261 0
M  V30 152 H -6.789766 -4.038003 -3.706643 0
M  V30 153 H -6.936537 -2.399166 -3.007921 0
M  V30 154 H 0.769490 -3.662351 -3.328601 0
M  V30 155 H 6.747323 2.155381 -2.539026 0
M  V30 156 H 5.601512 1.145689 -1.626993 0
M  V30 157 H 7.029834 0.384431 -2.427945 0
M  V30 158 H 6.779832 2.212102 -5.020758 0
M  V30 159 H 5.762055 1.107300 -5.996106 0
M  V30 160 H 7.164484 0.454921 -5.074761 0
M  V30 161 H -2.186181 -4.114340 0.953471 0
M  V30 162 H -4.993079 -4.926136 3.070814 0
M  V30 163 H -3.341082 -4.471605 3.613956 0
M  V30 164 H -4.708461 -3.354040 3.907404 0
M  V30 165 H 2.708924 -4.068494 -4.957257 0
M  V30 166 H 1.802226 -6.065239 -5.967171 0
M  V30 167 H 0.451993 -5.094855 -5.295429 0
M  V30 168 H 1.001444 -6.589845 -4.464705 0
M  V30 169 H 4.113477 -6.067268 -4.750881 0
M  V30 170 H 4.357127 -5.019591 -3.312897 0
M  V30 171 H 3.371530 -6.516262 -3.185052 0
M  V30 172 H -2.859681 -6.384310 -1.310408 0
M  V30 173 H 1.398037 -6.246636 0.444845 0
M  V30 174 H 0.669908 -2.715374 0.569691 0
M  V30 175 H 2.245158 -2.551114 -0.244342 0
M  V30 176 H 0.707424 -2.423511 -1.182553 0
M  V30 177 H -0.696544 -5.764790 -1.146264 0
M  V30 178 H -3.589481 -8.226549 0.181759 0
M  V30 179 H -2.367037 -7.761170 1.413780 0
M  V30 180 H -1.838982 -8.391797 -0.187377 0
M  V30 181 H -3.872298 4.151369 1.176360 0
M  V30 182 H -5.728559 4.634606 -0.344161 0
M  V30 183 H -5.072215 3.045964 -0.816529 0
M  V30 184 H -4.683050 4.490494 -1.789076 0
M  V30 185 H -2.467095 6.291071 0.614630 0
M  V30 186 H -3.278334 6.315023 -0.968023 0
M  V30 187 H -4.243239 6.491801 0.534526 0
M  V30 188 H 1.355779 -3.852397 2.313672 0
M  V30 189 H 1.633680 -5.561505 2.690225 0
M  V30 190 H 3.506415 -3.800985 0.987896 0
M  V30 191 H 5.044660 -3.984895 2.932631 0
M  V30 192 H 3.494579 -3.244561 3.441627 0
M  V30 193 H 3.835136 -4.967268 3.834084 0
M  V30 194 H 5.109990 -5.748517 1.149264 0
M  V30 195 H 3.677149 -6.132267 0.159124 0
M  V30 196 H 3.794669 -6.759353 1.847656 0
M  V30 END ATOM
M  V30 BEGIN BOND
M  V30 1 1 1 2
M  V30 2 1 1 3
M  V30 3 1 1 4
M  V30 4 1 1 86
M  V30 5 1 2 5
M  V30 6 1 2 6
M  V30 7 1 7 3
M  V30 8 2 3 8
M  V30 9 1 4 9
M  V30 10 1 4 10
M  V30 11 1 4 87
M  V30 12 1 5 11
M  V30 13 2 5 12
M  V30 14 1 6 88
M  V30 15 1 6 89
M  V30 16 1 6 90
M  V30 17 1 13 7
M  V30 18 1 7 91
M  V30 19 1 9 14
M  V30 20 1 9 15
M  V30 21 1 9 92
M  V30 22 1 10 93
M  V30 23 1 11 16
M  V30 24 1 11 79
M  V30 25 1 11 94
M  V30 26 1 17 13
M  V30 27 1 13 18
M  V30 28 1 13 95
M  V30 29 1 14 19
M  V30 30 1 14 96
M  V30 31 1 14 97
M  V30 32 1 15 98
M  V30 33 1 15 99
M  V30 34 1 15 100
M  V30 35 1 16 20
M  V30 36 1 16 21
M  V30 37 1 22 17
M  V30 38 2 17 23
M  V30 39 1 18 24
M  V30 40 1 18 101
M  V30 41 1 18 102
M  V30 42 2 19 25
M  V30 43 1 19 103
M  V30 44 1 20 26
M  V30 45 2 20 27
M  V30 46 1 21 104
M  V30 47 1 21 105
M  V30 48 1 21 106
M  V30 49 1 28 22
M  V30 50 1 22 29
M  V30 51 1 24 107
M  V30 52 1 24 108
M  V30 53 1 24 109
M  V30 54 1 25 30
M  V30 55 1 25 110
M  V30 56 1 26 31
M  V30 57 1 26 32
M  V30 58 1 26 111
M  V30 59 1 33 28
M  V30 60 1 28 112
M  V30 61 1 28 113
M  V30 62 1 29 114
M  V30 63 1 29 115
M  V30 64 1 29 116
M  V30 65 1 30 117
M  V30 66 1 30 118
M  V30 67 1 30 119
M  V30 68 1 31 34
M  V30 69 1 31 35
M  V30 70 1 32 36
M  V30 71 1 32 120
M  V30 72 1 32 121
M  V30 73 1 37 33
M  V30 74 2 33 38
M  V30 75 1 34 39
M  V30 76 2 34 40
M  V30 77 1 35 122
M  V30 78 1 35 123
M  V30 79 1 35 124
M  V30 80 1 36 41
M  V30 81 1 36 42
M  V30 82 1 36 125
M  V30 83 1 43 37
M  V30 84 1 37 44
M  V30 85 1 39 45
M  V30 86 1 39 46
M  V30 87 1 39 126
M  V30 88 1 41 127
M  V30 89 1 41 128
M  V30 90 1 41 129
M  V30 91 1 42 130
M  V30 92 1 42 131
M  V30 93 1 42 132
M  V30 94 1 47 43
M  V30 95 1 43 48
M  V30 96 1 43 133
M  V30 97 1 44 134
M  V30 98 1 44 135
M  V30 99 1 44 136
M  V30 100 1 45 49
M  V30 101 1 45 50
M  V30 102 1 46 51
M  V30 103 1 46 137
M  V30 104 1 46 138
M  V30 105 1 52 47
M  V30 106 2 47 53
M  V30 107 1 48 54
M  V30 108 1 48 139
M  V30 109 1 48 140
M  V30 110 1 49 55
M  V30 111 2 49 56
M  V30 112 1 50 141
M  V30 113 1 50 142
M  V30 114 1 50 143
M  V30 115 1 51 57
M  V30 116 1 51 58
M  V30 117 1 51 144
M  V30 118 1 59 52
M  V30 119 1 52 145
M  V30 120 1 54 60
M  V30 121 1 54 61
M  V30 122 1 54 146
M  V30 123 1 55 62
M  V30 124 1 55 63
M  V30 125 1 55 147
M  V30 126 1 57 148
M  V30 127 1 57 149
M  V30 128 1 57 150
M  V30 129 1 58 151
M  V30 130 1 58 152
M  V30 131 1 58 153
M  V30 132 1 64 59
M  V30 133 1 59 65
M  V30 134 1 59 154
M  V30 135 1 60 155
M  V30 136 1 60 156
M  V30 137 1 60 157
M  V30 138 1 61 158
M  V30 139 1 61 159
M  V30 140 1 61 160
M  V30 141 1 62 66
M  V30 142 1 62 161
M  V30 143 1 63 162
M  V30 144 1 63 163
M  V30 145 1 63 164
M  V30 146 1 67 64
M  V30 147 2 64 68
M  V30 148 1 65 69
M  V30 149 1 65 70
M  V30 150 1 65 165
M  V30 151 1 66 71
M  V30 152 2 66 72
M  V30 153 1 73 67
M  V30 154 1 67 74
M  V30 155 1 69 166
M  V30 156 1 69 167
M  V30 157 1 69 168
M  V30 158 1 70 169
M  V30 159 1 70 170
M  V30 160 1 70 171
M  V30 161 1 71 75
M  V30 162 1 71 76
M  V30 163 1 71 172
M  V30 164 1 77 73
M  V30 165 1 73 82
M  V30 166 1 73 173
M  V30 167 1 74 174
M  V30 168 1 74 175
M  V30 169 1 74 176
M  V30 170 1 75 77
M  V30 171 1 75 177
M  V30 172 1 76 178
M  V30 173 1 76 179
M  V30 174 1 76 180
M  V30 175 2 77 78
M  V30 176 1 79 80
M  V30 177 1 79 81
M  V30 178 1 79 181
M  V30 179 1 80 182
M  V30 180 1 80 183
M  V30 181 1 80 184
M  V30 182 1 81 185
M  V30 183 1 81 186
M  V30 184 1 81 187
M  V30 185 1 82 83
M  V30 186 1 82 188
M  V30 187 1 82 189
M  V30 188 1 83 84
M  V30 189 1 83 85
M  V30 190 1 83 190
M  V30 191 1 84 191
M  V30 192 1 84 192
M  V30 193 1 84 193
M  V30 194 1 85 194
M  V30 195 1 85 195
M  V30 196 1 85 196
M  V30 END BOND
M  V30 END CTAB
M  END
