
  Chem3D Core 15.010021516023D

 48 50  0  0  0  0  0  0  0  0999 V2000
   -3.7802   -2.6733    5.8285 F   0  0  0  0  0  0  0  0  0  0  0  0
   -3.8136   -4.5497    4.8192 F   0  0  0  0  0  0  0  0  0  0  0  0
   -5.6284   -3.4718    5.1142 F   0  0  0  0  0  0  0  0  0  0  0  0
    0.0531    1.9071   -0.6116 N   0  0  0  0  0  0  0  0  0  0  0  0
    2.6144    3.4151   -2.8131 C   0  0  0  0  0  0  0  0  0  0  0  0
    1.4178    3.1901   -2.2161 C   0  0  0  0  0  0  0  0  0  0  0  0
    2.6614    3.8401   -4.0967 C   0  0  0  0  0  0  0  0  0  0  0  0
   -4.1076   -2.6767    3.4890 C   0  0  0  0  0  0  0  0  0  0  0  0
   -4.3426   -3.3355    4.8292 C   0  0  0  0  0  0  0  0  0  0  0  0
    1.2790    2.6999   -0.7727 C   0  0  0  0  0  0  0  0  0  0  0  0
    0.2975    3.4394   -2.9223 C   0  0  0  0  0  0  0  0  0  0  0  0
    3.7932    3.2458   -2.1788 C   0  0  0  0  0  0  0  0  0  0  0  0
    1.5249    4.0555   -4.7819 C   0  0  0  0  0  0  0  0  0  0  0  0
   -3.0181   -1.9177    3.2715 C   0  0  0  0  0  0  0  0  0  0  0  0
   -2.7991   -1.2712    2.1108 C   0  0  0  0  0  0  0  0  0  0  0  0
    3.8403    4.0607   -4.7088 C   0  0  0  0  0  0  0  0  0  0  0  0
    0.3396    3.8626   -4.1920 C   0  0  0  0  0  0  0  0  0  0  0  0
   -5.0331   -2.7381    2.5157 C   0  0  0  0  0  0  0  0  0  0  0  0
    4.9695    3.4675   -2.7852 C   0  0  0  0  0  0  0  0  0  0  0  0
   -3.7299   -1.3831    1.1465 C   0  0  0  0  0  0  0  0  0  0  0  0
    4.9977    3.8741   -4.0603 C   0  0  0  0  0  0  0  0  0  0  0  0
   -4.8410   -2.1069    1.3484 C   0  0  0  0  0  0  0  0  0  0  0  0
   -1.5304   -0.4525    1.9562 C   0  0  0  0  0  0  0  0  0  0  0  0
    1.2970    3.9106    0.1745 C   0  0  0  0  0  0  0  0  0  0  0  0
   -0.0560    1.1567    0.6412 C   0  0  0  0  0  0  0  0  0  0  0  0
   -1.3656    0.3487    0.6549 C   0  0  0  0  0  0  0  0  0  0  0  0
   -0.7713    2.5541   -0.6770 H   0  0  0  0  0  0  0  0  0  0  0  0
    2.1168    2.0060   -0.5293 H   0  0  0  0  0  0  0  0  0  0  0  0
   -0.7013    3.3066   -2.4780 H   0  0  0  0  0  0  0  0  0  0  0  0
    3.8580    2.9262   -1.1279 H   0  0  0  0  0  0  0  0  0  0  0  0
    1.5393    4.4052   -5.8285 H   0  0  0  0  0  0  0  0  0  0  0  0
   -2.2648   -1.8231    4.0709 H   0  0  0  0  0  0  0  0  0  0  0  0
    3.8843    4.4052   -5.7565 H   0  0  0  0  0  0  0  0  0  0  0  0
   -0.5939    4.0542   -4.7476 H   0  0  0  0  0  0  0  0  0  0  0  0
   -5.9602   -3.3161    2.6618 H   0  0  0  0  0  0  0  0  0  0  0  0
    5.9156    3.3205   -2.2369 H   0  0  0  0  0  0  0  0  0  0  0  0
   -3.6121   -0.8779    0.1759 H   0  0  0  0  0  0  0  0  0  0  0  0
    5.9602    4.0602   -4.5653 H   0  0  0  0  0  0  0  0  0  0  0  0
   -5.6036   -2.1777    0.5542 H   0  0  0  0  0  0  0  0  0  0  0  0
   -1.4820    0.2622    2.8129 H   0  0  0  0  0  0  0  0  0  0  0  0
   -0.6643   -1.1501    2.0549 H   0  0  0  0  0  0  0  0  0  0  0  0
    2.1949    4.5466    0.0028 H   0  0  0  0  0  0  0  0  0  0  0  0
    1.3250    3.6095    1.2450 H   0  0  0  0  0  0  0  0  0  0  0  0
    0.3977    4.5497    0.0208 H   0  0  0  0  0  0  0  0  0  0  0  0
    0.8108    0.4631    0.7509 H   0  0  0  0  0  0  0  0  0  0  0  0
   -0.0587    1.8558    1.5085 H   0  0  0  0  0  0  0  0  0  0  0  0
   -1.3608   -0.3450   -0.2200 H   0  0  0  0  0  0  0  0  0  0  0  0
   -2.2213    1.0563    0.5363 H   0  0  0  0  0  0  0  0  0  0  0  0
  1  9  1  0      
  2  9  1  0      
  3  9  1  0      
  4 10  1  0      
  4 25  1  0      
  4 27  1  0      
  6  5  1  0      
  5  7  1  0      
  5 12  2  0      
  6 10  1  0      
 11  6  2  0      
  7 13  1  0      
 16  7  2  0      
  8  9  1  0      
  8 14  1  0      
  8 18  2  0      
 10 24  1  0      
 10 28  1  0      
 17 11  1  0      
 11 29  1  0      
 12 19  1  0      
 12 30  1  0      
 17 13  2  0      
 13 31  1  0      
 14 15  2  0      
 14 32  1  0      
 15 20  1  0      
 15 23  1  0      
 21 16  1  0      
 16 33  1  0      
 17 34  1  0      
 22 18  1  0      
 18 35  1  0      
 19 21  2  0      
 19 36  1  0      
 20 22  2  0      
 20 37  1  0      
 21 38  1  0      
 22 39  1  0      
 23 26  1  0      
 23 40  1  0      
 23 41  1  0      
 24 42  1  0      
 24 43  1  0      
 24 44  1  0      
 25 26  1  0      
 25 45  1  0      
 25 46  1  0      
 26 47  1  0      
 26 48  1  0      
M  END
