


  5  0  0  0000  0  0  0  0  0999 V2000
    0.0000   -5.0000    0.0000 Cl  0  5  0  0  0  0  0  0  0  0  0
    5.0000   -5.0000    0.0000 Pt  0  0  0  0  0  0  0  0  0  0  0
    5.0000  -10.0000    0.0000 Cl  0  5  0  0  0  0  0  0  0  0  0
   10.0000   -5.0000    0.0000 N   0  5  0  0  0  0  0  0  0  0  0
    5.0000    0.0000    0.0000 N   0  5  0  0  0  0  0  0  0  0  0
M  CHG  5   1  -1   2   4   3  -1   4  -1   5  -1
M  END

> <StdInChI>
InChI=1S/2ClH.2H2N.Pt/h2*1H;2*1H2;/q;;2*-1;+4/p-2

> <StdInChIKey>
DQLATGHUWYMOKM-UHFFFAOYSA-L

> <AuxInfo>
1/1/N:1;3;4;5;2/CRV:;;2*1-1;/rA:5nCl-Pt+4Cl-N-N-/rB:;;;;/rC:0,-5,0;5,-5,0;5,-10,0;10,-5,0;5,0,0;

> <Formula>
Cl2 H4 N2 Pt

> <Mw>
298.0292

> <SMILES>
[Cl-].[Pt+4].[Cl-].[NH2-].[NH2-]

> <CSID>
29305326

$$$$
