
  Chem3D Core 15.003291611143D

 60 61  0  0  0  0  0  0  0  0999 V2000
    0.1841   -1.2790   -4.6956 C   0  0  0  0  0  0  0  0  0  0  0  0
   -0.7227   -0.3396   -5.2218 O   0  0  0  0  0  0  0  0  0  0  0  0
   -0.3996   -2.6851   -4.5660 C   0  0  0  0  0  0  0  0  0  0  0  0
   -2.6640   -1.7313   -4.7123 C   0  0  0  0  0  0  0  0  0  0  0  0
   -1.7867   -2.7071   -3.9661 C   0  0  0  0  0  0  0  0  0  0  0  0
    0.9965   -0.7517   -3.4752 C   0  0  0  0  0  0  0  0  0  0  0  0
    0.3479   -0.8386   -0.9883 C   0  0  0  0  0  0  0  0  0  0  0  0
    0.4762   -1.3715   -2.2459 N   0  0  0  0  0  0  0  0  0  0  0  0
   -2.0424   -0.3446   -4.7222 C   0  0  0  0  0  0  0  0  0  0  0  0
   -0.3673    1.4817   -0.5243 N   0  0  0  0  0  0  0  0  0  0  0  0
    0.7836    0.6120   -0.7336 C   0  0  0  0  0  0  0  0  0  0  0  0
   -0.7517    1.2966    0.8681 C   0  0  0  0  0  0  0  0  0  0  0  0
   -0.0827   -1.5564   -0.1229 O   0  0  0  0  0  0  0  0  0  0  0  0
    1.5871    0.7362    0.5737 C   0  0  0  0  0  0  0  0  0  0  0  0
    2.5109   -1.0479   -3.6613 C   0  0  0  0  0  0  0  0  0  0  0  0
   -2.2743    0.4788   -3.1127 S   0  0  0  0  0  0  0  0  0  0  0  0
    0.5207    0.9446    1.6647 C   0  0  0  0  0  0  0  0  0  0  0  0
   -3.9362   -1.7371   -4.1058 O   0  0  0  0  0  0  0  0  0  0  0  0
   -0.4825   -3.2801   -5.8414 O   0  0  0  0  0  0  0  0  0  0  0  0
   -2.3232   -3.9996   -4.1091 O   0  0  0  0  0  0  0  0  0  0  0  0
   -0.0542    2.8766   -0.8018 C   0  0  0  0  0  0  0  0  0  0  0  0
    3.5367   -0.3098   -2.3972 Cl  0  0  0  0  0  0  0  0  0  0  0  0
    0.9353    1.9875    2.7156 C   0  0  0  0  0  0  0  0  0  0  0  0
   -1.9931    2.1875   -3.6550 C   0  0  0  0  0  0  0  0  0  0  0  0
    2.8675   -2.5331   -3.7586 C   0  0  0  0  0  0  0  0  0  0  0  0
   -0.0111    2.0296    3.9267 C   0  0  0  0  0  0  0  0  0  0  0  0
    0.4438    3.0620    4.9667 C   0  0  0  0  0  0  0  0  0  0  0  0
    1.3951    0.9881   -1.5768 H   0  0  0  0  0  0  0  0  0  0  0  0
    0.9435   -1.3487   -5.5174 H   0  0  0  0  0  0  0  0  0  0  0  0
    0.2611   -3.3561   -3.9724 H   0  0  0  0  0  0  0  0  0  0  0  0
   -2.8091   -2.0845   -5.7614 H   0  0  0  0  0  0  0  0  0  0  0  0
   -1.7696   -2.4785   -2.8772 H   0  0  0  0  0  0  0  0  0  0  0  0
    0.8538    0.3535   -3.4573 H   0  0  0  0  0  0  0  0  0  0  0  0
    0.2354   -2.3633   -2.2770 H   0  0  0  0  0  0  0  0  0  0  0  0
   -2.6408    0.2465   -5.4614 H   0  0  0  0  0  0  0  0  0  0  0  0
   -1.4768    0.4502    0.9312 H   0  0  0  0  0  0  0  0  0  0  0  0
   -1.2940    2.1783    1.2742 H   0  0  0  0  0  0  0  0  0  0  0  0
    2.2639    1.6205    0.5180 H   0  0  0  0  0  0  0  0  0  0  0  0
    2.2324   -0.1512    0.7637 H   0  0  0  0  0  0  0  0  0  0  0  0
    2.8574   -0.5445   -4.5922 H   0  0  0  0  0  0  0  0  0  0  0  0
    0.3647   -0.0283    2.1945 H   0  0  0  0  0  0  0  0  0  0  0  0
   -3.9669   -1.1260   -3.3663 H   0  0  0  0  0  0  0  0  0  0  0  0
   -1.0010   -4.0866   -5.7622 H   0  0  0  0  0  0  0  0  0  0  0  0
   -3.2424   -3.9862   -3.8322 H   0  0  0  0  0  0  0  0  0  0  0  0
   -0.9565    3.5151   -0.6645 H   0  0  0  0  0  0  0  0  0  0  0  0
    0.2700    3.0097   -1.8586 H   0  0  0  0  0  0  0  0  0  0  0  0
    0.7476    3.2787   -0.1451 H   0  0  0  0  0  0  0  0  0  0  0  0
    1.9611    1.7385    3.0796 H   0  0  0  0  0  0  0  0  0  0  0  0
    0.9890    2.9961    2.2439 H   0  0  0  0  0  0  0  0  0  0  0  0
   -2.1602    2.8743   -2.7969 H   0  0  0  0  0  0  0  0  0  0  0  0
   -0.9508    2.3105   -4.0241 H   0  0  0  0  0  0  0  0  0  0  0  0
   -2.7067    2.4640   -4.4620 H   0  0  0  0  0  0  0  0  0  0  0  0
    3.9669   -2.6871   -3.8564 H   0  0  0  0  0  0  0  0  0  0  0  0
    2.4214   -3.0140   -4.6566 H   0  0  0  0  0  0  0  0  0  0  0  0
    2.5293   -3.0932   -2.8574 H   0  0  0  0  0  0  0  0  0  0  0  0
   -1.0469    2.2782    3.5967 H   0  0  0  0  0  0  0  0  0  0  0  0
   -0.0511    1.0232    4.4078 H   0  0  0  0  0  0  0  0  0  0  0  0
   -0.2463    3.0806    5.8414 H   0  0  0  0  0  0  0  0  0  0  0  0
    1.4640    2.8271    5.3470 H   0  0  0  0  0  0  0  0  0  0  0  0
    0.4664    4.0866    4.5305 H   0  0  0  0  0  0  0  0  0  0  0  0
  1  2  1  0      
  1  3  1  0      
  6  1  1  0      
  1 29  1  0      
  9  2  1  0      
  3  5  1  0      
  3 19  1  0      
  3 30  1  0      
  5  4  1  0      
  4  9  1  0      
  4 18  1  0      
  4 31  1  0      
  5 20  1  0      
  5 32  1  0      
  8  6  1  0      
 15  6  1  0      
  6 33  1  0      
  7  8  1  0      
 11  7  1  0      
 13  7  2  0      
  8 34  1  0      
  9 16  1  0      
  9 35  1  0      
 10 11  1  0      
 10 12  1  0      
 21 10  1  0      
 11 14  1  0      
 11 28  1  0      
 17 12  1  0      
 12 36  1  0      
 12 37  1  0      
 14 17  1  0      
 14 38  1  0      
 14 39  1  0      
 22 15  1  0      
 25 15  1  0      
 15 40  1  0      
 24 16  1  0      
 17 23  1  0      
 17 41  1  0      
 18 42  1  0      
 19 43  1  0      
 20 44  1  0      
 21 45  1  0      
 21 46  1  0      
 21 47  1  0      
 26 23  1  0      
 23 48  1  0      
 23 49  1  0      
 24 50  1  0      
 24 51  1  0      
 24 52  1  0      
 25 53  1  0      
 25 54  1  0      
 25 55  1  0      
 27 26  1  0      
 26 56  1  0      
 26 57  1  0      
 27 58  1  0      
 27 59  1  0      
 27 60  1  0      
M  END
