
  Chem3D Core 15.010151510403D

 51 54  0  0  0  0  0  0  0  0999 V2000
    2.7015   -1.2923    1.0261 O   0  0  0  0  0  0  0  0  0  0  0  0
    1.5784   -1.7308    1.1364 C   0  0  0  0  0  0  0  0  0  0  0  0
    0.8769   -1.5603    2.2926 C   0  0  0  0  0  0  0  0  0  0  0  0
    0.1934   -2.6307    2.7417 C   0  0  0  0  0  0  0  0  0  0  0  0
   -0.4124   -2.6256    3.9358 C   0  0  0  0  0  0  0  0  0  0  0  0
   -0.3062   -1.5495    4.7239 C   0  0  0  0  0  0  0  0  0  0  0  0
   -0.8747   -1.5569    5.9212 F   0  0  0  0  0  0  0  0  0  0  0  0
    0.3724   -0.4741    4.2842 C   0  0  0  0  0  0  0  0  0  0  0  0
    0.4367    0.5814    5.0909 F   0  0  0  0  0  0  0  0  0  0  0  0
    0.9402   -0.4424    3.0543 C   0  0  0  0  0  0  0  0  0  0  0  0
    1.4393    0.7087    2.8202 N   0  0  0  0  0  0  0  0  0  0  0  0
    1.8925    1.4389    1.8795 C   0  0  0  0  0  0  0  0  0  0  0  0
    1.8117    1.2259    0.5537 C   0  0  0  0  0  0  0  0  0  0  0  0
    2.3242    2.0893   -0.3370 C   0  0  0  0  0  0  0  0  0  0  0  0
    2.9163    3.2136    0.0881 C   0  0  0  0  0  0  0  0  0  0  0  0
    3.7331    4.6165   -1.3346 I   0  0  0  0  0  0  0  0  0  0  0  0
    2.9638    3.4708    1.4028 C   0  0  0  0  0  0  0  0  0  0  0  0
    2.4467    2.6016    2.2868 C   0  0  0  0  0  0  0  0  0  0  0  0
    2.5216    2.9005    3.5777 F   0  0  0  0  0  0  0  0  0  0  0  0
    0.9614   -2.2599    0.0348 N   0  0  0  0  0  0  0  0  0  0  0  0
    1.5357   -2.4034   -1.2892 C   0  0  0  0  0  0  0  0  0  0  0  0
    0.0511   -2.7031   -1.6695 C   0  0  0  0  0  0  0  0  0  0  0  0
   -0.5713   -1.7163   -2.6555 C   0  0  0  0  0  0  0  0  0  0  0  0
   -0.4361   -0.6874   -2.2400 H   0  0  0  0  0  0  0  0  0  0  0  0
    0.1407   -1.7807   -3.9344 N   0  0  0  0  0  0  0  0  0  0  0  0
   -0.3694   -0.8413   -4.9319 C   0  0  0  0  0  0  0  0  0  0  0  0
   -1.8647   -1.0606   -5.1960 C   0  0  0  0  0  0  0  0  0  0  0  0
   -2.6550   -0.9794   -3.8841 C   0  0  0  0  0  0  0  0  0  0  0  0
   -2.0733   -1.9705   -2.8672 C   0  0  0  0  0  0  0  0  0  0  0  0
   -0.0809   -4.0271   -2.1047 O   0  0  0  0  0  0  0  0  0  0  0  0
   -0.4412   -2.5606   -0.1906 C   0  0  0  0  0  0  0  0  0  0  0  0
    0.1733   -3.5820    2.1859 H   0  0  0  0  0  0  0  0  0  0  0  0
   -0.9466   -3.5211    4.2949 H   0  0  0  0  0  0  0  0  0  0  0  0
    1.4740    1.2727    3.7112 H   0  0  0  0  0  0  0  0  0  0  0  0
    1.2642    0.3716    0.1358 H   0  0  0  0  0  0  0  0  0  0  0  0
    2.2276    1.8806   -1.4157 H   0  0  0  0  0  0  0  0  0  0  0  0
    3.4271    4.4011    1.7702 H   0  0  0  0  0  0  0  0  0  0  0  0
    2.2285   -3.2700   -1.3535 H   0  0  0  0  0  0  0  0  0  0  0  0
    1.9336   -1.4452   -1.6881 H   0  0  0  0  0  0  0  0  0  0  0  0
    1.1598   -1.5792   -3.7794 H   0  0  0  0  0  0  0  0  0  0  0  0
    0.2077   -0.9699   -5.8781 H   0  0  0  0  0  0  0  0  0  0  0  0
   -0.1909    0.2024   -4.5812 H   0  0  0  0  0  0  0  0  0  0  0  0
   -2.2433   -0.3015   -5.9212 H   0  0  0  0  0  0  0  0  0  0  0  0
   -2.0146   -2.0654   -5.6586 H   0  0  0  0  0  0  0  0  0  0  0  0
   -3.7331   -1.2014   -4.0686 H   0  0  0  0  0  0  0  0  0  0  0  0
   -2.5954    0.0568   -3.4738 H   0  0  0  0  0  0  0  0  0  0  0  0
   -2.2305   -3.0096   -3.2412 H   0  0  0  0  0  0  0  0  0  0  0  0
   -2.6240   -1.8820   -1.9017 H   0  0  0  0  0  0  0  0  0  0  0  0
    0.4394   -4.6165   -1.5535 H   0  0  0  0  0  0  0  0  0  0  0  0
   -0.7853   -3.5242    0.2403 H   0  0  0  0  0  0  0  0  0  0  0  0
   -1.0958   -1.6840    0.0045 H   0  0  0  0  0  0  0  0  0  0  0  0
  1  2  2  0      
  2  3  1  0      
  2 20  1  0      
  3  4  1  0      
  3 10  2  0      
  4  5  2  0      
  4 32  1  0      
  5  6  1  0      
  5 33  1  0      
  6  7  1  0      
  6  8  2  0      
  8  9  1  0      
  8 10  1  0      
 10 11  1  0      
 11 12  1  0      
 11 34  1  0      
 12 13  1  0      
 12 18  2  0      
 13 14  2  0      
 13 35  1  0      
 14 15  1  0      
 14 36  1  0      
 15 16  1  0      
 15 17  2  0      
 17 18  1  0      
 17 37  1  0      
 18 19  1  0      
 21 20  1  0      
 31 20  1  0      
 21 22  1  0      
 21 38  1  0      
 21 39  1  0      
 22 23  1  0      
 22 30  1  0      
 22 31  1  0      
 23 24  1  0      
 25 23  1  0      
 23 29  1  0      
 25 26  1  0      
 25 40  1  0      
 27 26  1  0      
 26 41  1  0      
 26 42  1  0      
 28 27  1  0      
 27 43  1  0      
 27 44  1  0      
 29 28  1  0      
 28 45  1  0      
 28 46  1  0      
 29 47  1  0      
 29 48  1  0      
 30 49  1  0      
 31 50  1  0      
 31 51  1  0      
M  END
