
  Chem3D Core 15.003291617103D

  0  0  0     0  0              0 V3000
M  V30 BEGIN CTAB
M  V30 COUNTS 54 56 0 0 0
M  V30 BEGIN ATOM
M  V30 1 O -1.089670 1.306868 1.654821 0
M  V30 2 O -3.465810 0.021542 1.339217 0
M  V30 3 O -3.714011 -2.037229 -0.381691 0
M  V30 4 O 4.226757 3.717307 0.463986 0
M  V30 5 O 5.247522 1.365365 0.814408 0
M  V30 6 O -0.275646 -3.459690 2.708331 0
M  V30 7 N 0.874366 -2.112406 1.365398 0
M  V30 8 C -0.147048 -0.025613 -0.068272 0
M  V30 9 C 1.075686 0.528614 0.142302 0
M  V30 10 C -1.228045 0.362105 0.657014 0
M  V30 11 C -0.272984 -1.044156 -0.941165 0
M  V30 12 C 2.159779 -0.251625 0.357642 0
M  V30 13 C -2.405878 -0.298988 0.520260 0
M  V30 14 C -2.526575 -1.342849 -0.332205 0
M  V30 15 C 1.986845 -1.782602 0.455779 0
M  V30 16 C -1.444026 -1.684751 -1.048395 0
M  V30 17 C 0.884869 -1.493325 -1.804981 0
M  V30 18 C 1.117951 1.869963 0.073275 0
M  V30 19 C 3.426822 0.167775 0.548932 0
M  V30 20 C 1.811568 -2.365904 -0.956435 0
M  V30 21 C 4.044336 1.380296 0.612297 0
M  V30 22 C 3.428385 2.589949 0.478409 0
M  V30 23 C 2.123378 2.739571 0.210048 0
M  V30 24 C 0.735509 -3.269161 2.082385 0
M  V30 25 C -1.829609 2.502640 1.517830 0
M  V30 26 C -4.557626 0.645753 0.696619 0
M  V30 27 C -3.720172 -3.348920 -0.896160 0
M  V30 28 C 1.892151 -4.254053 2.051819 0
M  V30 29 C 4.458896 4.278004 1.736886 0
M  V30 30 H 0.071078 -1.487794 1.432994 0
M  V30 31 H 2.898362 -2.252896 0.891777 0
M  V30 32 H -1.490182 -2.530747 -1.750154 0
M  V30 33 H 0.548675 -2.052772 -2.708331 0
M  V30 34 H 1.423663 -0.603139 -2.205811 0
M  V30 35 H 0.176514 2.379301 -0.207624 0
M  V30 36 H 4.162613 -0.646558 0.698831 0
M  V30 37 H 1.398874 -3.399639 -0.885229 0
M  V30 38 H 2.799313 -2.444562 -1.471481 0
M  V30 39 H 1.823565 3.797279 0.061749 0
M  V30 40 H -1.253112 3.322933 2.001531 0
M  V30 41 H -1.991934 2.755172 0.447310 0
M  V30 42 H -2.801560 2.422475 2.050040 0
M  V30 43 H -5.247522 1.025942 1.482856 0
M  V30 44 H -4.205521 1.500084 0.077403 0
M  V30 45 H -5.116335 -0.075090 0.063238 0
M  V30 46 H -4.727544 -3.782729 -0.705938 0
M  V30 47 H -3.558496 -3.338918 -1.996766 0
M  V30 48 H -2.963889 -3.973276 -0.369603 0
M  V30 49 H 1.625898 -5.173936 2.620245 0
M  V30 50 H 2.134427 -4.577644 1.015829 0
M  V30 51 H 2.794003 -3.822801 2.541587 0
M  V30 52 H 5.106197 5.173936 1.607752 0
M  V30 53 H 3.493283 4.588496 2.195269 0
M  V30 54 H 4.977630 3.547349 2.395722 0
M  V30 END ATOM
M  V30 BEGIN BOND
M  V30 1 1 1 10
M  V30 2 1 1 25
M  V30 3 1 2 13
M  V30 4 1 2 26
M  V30 5 1 3 14
M  V30 6 1 3 27
M  V30 7 1 4 22
M  V30 8 1 4 29
M  V30 9 2 5 21
M  V30 10 2 6 24
M  V30 11 1 15 7
M  V30 12 1 7 24
M  V30 13 1 7 30
M  V30 14 1 8 9
M  V30 15 2 8 10
M  V30 16 1 8 11
M  V30 17 1 9 12
M  V30 18 2 9 18
M  V30 19 1 10 13
M  V30 20 2 11 16
M  V30 21 1 11 17
M  V30 22 1 12 15
M  V30 23 2 12 19
M  V30 24 2 13 14
M  V30 25 1 14 16
M  V30 26 1 15 20
M  V30 27 1 15 31
M  V30 28 1 16 32
M  V30 29 1 17 20
M  V30 30 1 17 33
M  V30 31 1 17 34
M  V30 32 1 18 23
M  V30 33 1 18 35
M  V30 34 1 19 21
M  V30 35 1 19 36
M  V30 36 1 20 37
M  V30 37 1 20 38
M  V30 38 1 21 22
M  V30 39 2 22 23
M  V30 40 1 23 39
M  V30 41 1 24 28
M  V30 42 1 25 40
M  V30 43 1 25 41
M  V30 44 1 25 42
M  V30 45 1 26 43
M  V30 46 1 26 44
M  V30 47 1 26 45
M  V30 48 1 27 46
M  V30 49 1 27 47
M  V30 50 1 27 48
M  V30 51 1 28 49
M  V30 52 1 28 50
M  V30 53 1 28 51
M  V30 54 1 29 52
M  V30 55 1 29 53
M  V30 56 1 29 54
M  V30 END BOND
M  V30 END CTAB
M  END
