
  Chem3D Core 15.008161521493D

 62 65  0  0  0  0  0  0  0  0999 V2000
   -3.8502   -2.4630   -0.4131 O   0  0  0  0  0  0  0  0  0  0  0  0
    5.5938   -3.7839   -0.0630 O   0  0  0  0  0  0  0  0  0  0  0  0
    6.1858   -1.5540    1.4483 O   0  0  0  0  0  0  0  0  0  0  0  0
   -3.0445    2.4366    1.7045 N   0  0  0  0  0  0  0  0  0  0  0  0
   -2.7786    4.4769    2.2330 N   0  0  0  0  0  0  0  0  0  0  0  0
   -0.9724    5.7589    1.7914 N   0  0  0  0  0  0  0  0  0  0  0  0
    4.7084   -0.2490    0.4272 N   0  0  0  0  0  0  0  0  0  0  0  0
   -0.9336   -4.2536    0.5967 N   0  0  0  0  0  0  0  0  0  0  0  0
   -0.9575    3.5326    1.3263 C   0  0  0  0  0  0  0  0  0  0  0  0
   -2.2473    3.4344    1.7333 C   0  0  0  0  0  0  0  0  0  0  0  0
   -3.1831    1.2995    1.1447 C   0  0  0  0  0  0  0  0  0  0  0  0
   -0.3560    4.7408    1.3613 C   0  0  0  0  0  0  0  0  0  0  0  0
   -0.1715    2.4956    0.9807 C   0  0  0  0  0  0  0  0  0  0  0  0
    1.1018    2.6029    0.5501 C   0  0  0  0  0  0  0  0  0  0  0  0
   -4.3850   -0.7372    1.1338 C   0  0  0  0  0  0  0  0  0  0  0  0
   -4.1555    0.4976    1.6193 C   0  0  0  0  0  0  0  0  0  0  0  0
   -3.6544   -1.2069    0.1008 C   0  0  0  0  0  0  0  0  0  0  0  0
    0.9101    4.8906    0.9356 C   0  0  0  0  0  0  0  0  0  0  0  0
   -2.5233    0.8517    0.0634 C   0  0  0  0  0  0  0  0  0  0  0  0
    1.6261    3.8398    0.5093 C   0  0  0  0  0  0  0  0  0  0  0  0
   -2.7491   -0.3704   -0.4371 C   0  0  0  0  0  0  0  0  0  0  0  0
    1.7694    1.4794    0.2122 C   0  0  0  0  0  0  0  0  0  0  0  0
   -5.4591   -1.6092    1.7484 C   0  0  0  0  0  0  0  0  0  0  0  0
   -2.1408    5.5669    2.2279 C   0  0  0  0  0  0  0  0  0  0  0  0
    3.0366    1.3579   -0.2177 C   0  0  0  0  0  0  0  0  0  0  0  0
    3.6597    0.0251   -0.5555 C   0  0  0  0  0  0  0  0  0  0  0  0
   -2.7042   -3.2098   -0.4865 C   0  0  0  0  0  0  0  0  0  0  0  0
   -2.1748   -3.5904   -1.6629 C   0  0  0  0  0  0  0  0  0  0  0  0
   -2.0148   -3.5955    0.6045 C   0  0  0  0  0  0  0  0  0  0  0  0
   -1.0332   -4.2933   -1.6780 C   0  0  0  0  0  0  0  0  0  0  0  0
   -0.4381   -4.6041   -0.5148 C   0  0  0  0  0  0  0  0  0  0  0  0
    5.3111   -1.4600    0.6246 C   0  0  0  0  0  0  0  0  0  0  0  0
    4.8008   -2.6210   -0.2288 C   0  0  0  0  0  0  0  0  0  0  0  0
    0.8612   -5.3686   -0.4613 C   0  0  0  0  0  0  0  0  0  0  0  0
    5.1030   -4.8753   -0.8121 C   0  0  0  0  0  0  0  0  0  0  0  0
   -3.8767    2.6241    2.3239 H   0  0  0  0  0  0  0  0  0  0  0  0
    5.0469    0.5158    1.0096 H   0  0  0  0  0  0  0  0  0  0  0  0
   -0.5522    1.4784    1.1416 H   0  0  0  0  0  0  0  0  0  0  0  0
   -4.7719    0.8371    2.4696 H   0  0  0  0  0  0  0  0  0  0  0  0
    1.3836    5.8883    0.9436 H   0  0  0  0  0  0  0  0  0  0  0  0
   -1.8213    1.4872   -0.4972 H   0  0  0  0  0  0  0  0  0  0  0  0
    2.6587    4.0300    0.1781 H   0  0  0  0  0  0  0  0  0  0  0  0
   -2.1812   -0.6863   -1.3290 H   0  0  0  0  0  0  0  0  0  0  0  0
    1.2261    0.5199    0.2892 H   0  0  0  0  0  0  0  0  0  0  0  0
   -6.0442   -1.0888    2.5387 H   0  0  0  0  0  0  0  0  0  0  0  0
   -6.1858   -1.9394    0.9716 H   0  0  0  0  0  0  0  0  0  0  0  0
   -5.0024   -2.5116    2.2153 H   0  0  0  0  0  0  0  0  0  0  0  0
   -2.6654    6.4482    2.6350 H   0  0  0  0  0  0  0  0  0  0  0  0
    3.7006    2.2291   -0.3298 H   0  0  0  0  0  0  0  0  0  0  0  0
    4.1015    0.0785   -1.5772 H   0  0  0  0  0  0  0  0  0  0  0  0
    2.8908   -0.7791   -0.5466 H   0  0  0  0  0  0  0  0  0  0  0  0
   -2.6686   -3.3143   -2.6089 H   0  0  0  0  0  0  0  0  0  0  0  0
   -2.3877   -3.3156    1.6048 H   0  0  0  0  0  0  0  0  0  0  0  0
   -0.5835   -4.6033   -2.6350 H   0  0  0  0  0  0  0  0  0  0  0  0
    4.8312   -2.3281   -1.3033 H   0  0  0  0  0  0  0  0  0  0  0  0
    3.7574   -2.8557    0.0846 H   0  0  0  0  0  0  0  0  0  0  0  0
    1.5744   -4.9856   -1.2263 H   0  0  0  0  0  0  0  0  0  0  0  0
    1.3651   -5.2826    0.5281 H   0  0  0  0  0  0  0  0  0  0  0  0
    0.6765   -6.4482   -0.6630 H   0  0  0  0  0  0  0  0  0  0  0  0
    5.7848   -5.7393   -0.6475 H   0  0  0  0  0  0  0  0  0  0  0  0
    4.0837   -5.1543   -0.4641 H   0  0  0  0  0  0  0  0  0  0  0  0
    5.0927   -4.6277   -1.8967 H   0  0  0  0  0  0  0  0  0  0  0  0
  1 17  1  0      
  1 27  1  0      
  2 33  1  0      
  2 35  1  0      
  3 32  2  0      
  4 10  1  0      
  4 11  1  0      
  4 36  1  0      
  5 10  1  0      
 24  5  2  0      
 12  6  2  0      
  6 24  1  0      
  7 26  1  0      
  7 32  1  0      
  7 37  1  0      
 29  8  2  0      
  8 31  1  0      
 10  9  2  0      
 12  9  1  0      
  9 13  1  0      
 11 16  1  0      
 11 19  2  0      
 18 12  1  0      
 13 14  2  0      
 13 38  1  0      
 20 14  1  0      
 14 22  1  0      
 16 15  2  0      
 15 17  1  0      
 15 23  1  0      
 16 39  1  0      
 17 21  2  0      
 20 18  2  0      
 18 40  1  0      
 21 19  1  0      
 19 41  1  0      
 20 42  1  0      
 21 43  1  0      
 22 25  2  0      
 22 44  1  0      
 23 45  1  0      
 23 46  1  0      
 23 47  1  0      
 24 48  1  0      
 25 26  1  0      
 25 49  1  0      
 26 50  1  0      
 26 51  1  0      
 28 27  2  0      
 27 29  1  0      
 30 28  1  0      
 28 52  1  0      
 29 53  1  0      
 30 31  2  0      
 30 54  1  0      
 31 34  1  0      
 32 33  1  0      
 33 55  1  0      
 33 56  1  0      
 34 57  1  0      
 34 58  1  0      
 34 59  1  0      
 35 60  1  0      
 35 61  1  0      
 35 62  1  0      
M  END
