
  Chem3D Core 15.009161511513D

 52 55  0  0  0  0  0  0  0  0999 V2000
   -1.7092   -2.7423   -2.3366 C   0  0  0  0  0  0  0  0  0  0  0  0
   -1.1187   -1.9337   -1.4394 C   0  0  0  0  0  0  0  0  0  0  0  0
   -1.9466   -1.4373   -0.5038 C   0  0  0  0  0  0  0  0  0  0  0  0
   -3.2731   -1.6710   -0.5243 C   0  0  0  0  0  0  0  0  0  0  0  0
   -3.7096   -2.5352   -1.4654 C   0  0  0  0  0  0  0  0  0  0  0  0
   -2.9389   -3.0359   -2.3371 N   0  0  0  0  0  0  0  0  0  0  0  0
   -4.9427   -2.8333   -1.4603 N   0  0  0  0  0  0  0  0  0  0  0  0
   -4.0903   -1.1785    0.4642 O   0  0  0  0  0  0  0  0  0  0  0  0
   -4.4875    0.1706    0.3145 C   0  0  0  0  0  0  0  0  0  0  0  0
   -3.3032    1.1423    0.4638 C   0  0  0  0  0  0  0  0  0  0  0  0
    0.1946   -1.6417   -1.4631 C   0  0  0  0  0  0  0  0  0  0  0  0
   -2.8646    1.4553    1.7080 C   0  0  0  0  0  0  0  0  0  0  0  0
   -1.8261    2.2825    1.9097 C   0  0  0  0  0  0  0  0  0  0  0  0
   -1.1824    2.8225    0.8693 C   0  0  0  0  0  0  0  0  0  0  0  0
   -1.5773    2.5232   -0.3742 C   0  0  0  0  0  0  0  0  0  0  0  0
   -2.6245    1.6948   -0.5714 C   0  0  0  0  0  0  0  0  0  0  0  0
   -2.9924    1.3595   -2.2308 Cl  0  0  0  0  0  0  0  0  0  0  0  0
   -3.5786    0.8096    3.1532 Cl  0  0  0  0  0  0  0  0  0  0  0  0
   -0.9132    3.0636   -1.3874 F   0  0  0  0  0  0  0  0  0  0  0  0
    1.1481   -2.0728   -2.3081 C   0  0  0  0  0  0  0  0  0  0  0  0
    2.2787   -1.5776   -2.0278 N   0  0  0  0  0  0  0  0  0  0  0  0
    2.0900   -0.8481   -1.0502 N   0  0  0  0  0  0  0  0  0  0  0  0
    0.8854   -0.8283   -0.6475 C   0  0  0  0  0  0  0  0  0  0  0  0
    3.0948   -0.0282   -0.3339 C   0  0  0  0  0  0  0  0  0  0  0  0
    3.5753   -0.7375    0.9419 C   0  0  0  0  0  0  0  0  0  0  0  0
    4.6284    0.1081    1.6717 C   0  0  0  0  0  0  0  0  0  0  0  0
    5.7507    0.4382    0.7953 N   0  0  0  0  0  0  0  0  0  0  0  0
    5.3387    1.1323   -0.4236 C   0  0  0  0  0  0  0  0  0  0  0  0
    4.3113    0.3081   -1.2121 C   0  0  0  0  0  0  0  0  0  0  0  0
   -5.4887    0.3338   -0.8336 C   0  0  0  0  0  0  0  0  0  0  0  0
   -1.1390   -3.2234   -3.1478 H   0  0  0  0  0  0  0  0  0  0  0  0
   -1.5572   -0.8113    0.3128 H   0  0  0  0  0  0  0  0  0  0  0  0
   -5.5821   -2.4207   -0.7378 H   0  0  0  0  0  0  0  0  0  0  0  0
   -5.3282   -3.4979   -2.1752 H   0  0  0  0  0  0  0  0  0  0  0  0
   -5.1601    0.3682    1.1878 H   0  0  0  0  0  0  0  0  0  0  0  0
   -1.4760    2.5291    2.9268 H   0  0  0  0  0  0  0  0  0  0  0  0
   -0.3268    3.4979    1.0343 H   0  0  0  0  0  0  0  0  0  0  0  0
    1.0363   -2.7639   -3.1532 H   0  0  0  0  0  0  0  0  0  0  0  0
    0.5567   -0.2283    0.2080 H   0  0  0  0  0  0  0  0  0  0  0  0
    2.6129    0.9410   -0.0506 H   0  0  0  0  0  0  0  0  0  0  0  0
    2.7147   -0.9349    1.6242 H   0  0  0  0  0  0  0  0  0  0  0  0
    4.0158   -1.7261    0.6698 H   0  0  0  0  0  0  0  0  0  0  0  0
    5.0137   -0.4456    2.5605 H   0  0  0  0  0  0  0  0  0  0  0  0
    4.1662    1.0502    2.0497 H   0  0  0  0  0  0  0  0  0  0  0  0
    6.4267    1.0464    1.3213 H   0  0  0  0  0  0  0  0  0  0  0  0
    6.2395    1.3240   -1.0533 H   0  0  0  0  0  0  0  0  0  0  0  0
    4.9099    2.1267   -0.1566 H   0  0  0  0  0  0  0  0  0  0  0  0
    4.7984   -0.6337   -1.5604 H   0  0  0  0  0  0  0  0  0  0  0  0
    3.9848    0.8716   -2.1184 H   0  0  0  0  0  0  0  0  0  0  0  0
   -5.7811    1.4011   -0.9652 H   0  0  0  0  0  0  0  0  0  0  0  0
   -6.4267   -0.2329   -0.6266 H   0  0  0  0  0  0  0  0  0  0  0  0
   -5.1338   -0.0641   -1.8066 H   0  0  0  0  0  0  0  0  0  0  0  0
  2  1  1  0      
  1  6  2  0      
  1 31  1  0      
  3  2  2  0      
  2 11  1  0      
  4  3  1  0      
  3 32  1  0      
  4  5  2  0      
  4  8  1  0      
  6  5  1  0      
  5  7  1  0      
  7 33  1  0      
  7 34  1  0      
  8  9  1  0      
  9 10  1  0      
  9 30  1  0      
  9 35  1  0      
 10 12  1  0      
 10 16  2  0      
 20 11  1  0      
 11 23  2  0      
 12 13  2  0      
 12 18  1  0      
 13 14  1  0      
 13 36  1  0      
 14 15  2  0      
 14 37  1  0      
 15 16  1  0      
 15 19  1  0      
 16 17  1  0      
 20 21  2  0      
 20 38  1  0      
 22 21  1  0      
 23 22  1  0      
 22 24  1  0      
 23 39  1  0      
 25 24  1  0      
 24 29  1  0      
 24 40  1  0      
 26 25  1  0      
 25 41  1  0      
 25 42  1  0      
 27 26  1  0      
 26 43  1  0      
 26 44  1  0      
 27 28  1  0      
 27 45  1  0      
 29 28  1  0      
 28 46  1  0      
 28 47  1  0      
 29 48  1  0      
 29 49  1  0      
 30 50  1  0      
 30 51  1  0      
 30 52  1  0      
M  END
