
  Chem3D Core 15.010151509003D

 50 53  0  0  0  0  0  0  0  0999 V2000
   -2.7773    0.6046   -1.2402 O   0  0  0  0  0  0  0  0  0  0  0  0
   -3.5988   -0.4429   -0.7731 C   0  0  0  0  0  0  0  0  0  0  0  0
   -3.5351   -1.6116   -1.7490 C   0  0  0  0  0  0  0  0  0  0  0  0
   -2.2688   -2.2113   -1.6700 O   0  0  0  0  0  0  0  0  0  0  0  0
   -1.9351   -3.2753   -2.4748 C   0  0  0  0  0  0  0  0  0  0  0  0
   -2.7894   -3.7639   -3.3975 C   0  0  0  0  0  0  0  0  0  0  0  0
   -2.4782   -4.7949   -4.1902 C   0  0  0  0  0  0  0  0  0  0  0  0
   -1.2769   -5.3636   -4.0626 C   0  0  0  0  0  0  0  0  0  0  0  0
   -0.3864   -4.9244   -3.1562 C   0  0  0  0  0  0  0  0  0  0  0  0
   -0.7211   -3.8809   -2.3589 C   0  0  0  0  0  0  0  0  0  0  0  0
    0.1969   -3.4518   -1.4345 C   0  0  0  0  0  0  0  0  0  0  0  0
    0.0513   -2.5416   -0.6393 O   0  0  0  0  0  0  0  0  0  0  0  0
    1.3958   -4.0968   -1.3763 C   0  0  0  0  0  0  0  0  0  0  0  0
    1.6980   -5.1251   -2.1825 C   0  0  0  0  0  0  0  0  0  0  0  0
    0.8112   -5.5799   -3.1060 O   0  0  0  0  0  0  0  0  0  0  0  0
    2.9150   -5.7377   -2.0828 C   0  0  0  0  0  0  0  0  0  0  0  0
    3.2036   -6.6699   -2.8032 O   0  0  0  0  0  0  0  0  0  0  0  0
    3.8670   -5.3624   -1.1959 O   0  0  0  0  0  0  0  0  0  0  0  0
   -3.1523   -0.7967    0.6379 C   0  0  0  0  0  0  0  0  0  0  0  0
   -3.2382    0.3724    1.4128 O   0  0  0  0  0  0  0  0  0  0  0  0
   -2.2320    0.5722    2.3251 C   0  0  0  0  0  0  0  0  0  0  0  0
   -2.0141   -0.3831    3.2504 C   0  0  0  0  0  0  0  0  0  0  0  0
   -1.0550   -0.2755    4.1749 C   0  0  0  0  0  0  0  0  0  0  0  0
   -0.2945    0.8227    4.1775 C   0  0  0  0  0  0  0  0  0  0  0  0
   -0.4773    1.8120    3.2844 C   0  0  0  0  0  0  0  0  0  0  0  0
   -1.4578    1.6903    2.3561 C   0  0  0  0  0  0  0  0  0  0  0  0
   -1.6303    2.7106    1.4563 C   0  0  0  0  0  0  0  0  0  0  0  0
   -2.4661    2.7615    0.5739 O   0  0  0  0  0  0  0  0  0  0  0  0
   -0.7969    3.7850    1.5403 C   0  0  0  0  0  0  0  0  0  0  0  0
    0.1660    3.8755    2.4695 C   0  0  0  0  0  0  0  0  0  0  0  0
    0.3562    2.8901    3.3856 O   0  0  0  0  0  0  0  0  0  0  0  0
    0.9752    4.9755    2.5104 C   0  0  0  0  0  0  0  0  0  0  0  0
    1.8490    5.0753    3.3457 O   0  0  0  0  0  0  0  0  0  0  0  0
    0.8664    6.0120    1.6456 O   0  0  0  0  0  0  0  0  0  0  0  0
   -2.8176    1.3336   -0.6139 H   0  0  0  0  0  0  0  0  0  0  0  0
   -4.6385   -0.0367   -0.7467 H   0  0  0  0  0  0  0  0  0  0  0  0
   -4.3115   -2.3617   -1.4691 H   0  0  0  0  0  0  0  0  0  0  0  0
   -3.7120   -1.2288   -2.7808 H   0  0  0  0  0  0  0  0  0  0  0  0
   -3.7920   -3.3336   -3.5453 H   0  0  0  0  0  0  0  0  0  0  0  0
   -3.1973   -5.1709   -4.9372 H   0  0  0  0  0  0  0  0  0  0  0  0
   -1.0151   -6.2138   -4.7154 H   0  0  0  0  0  0  0  0  0  0  0  0
    2.1334   -3.7485   -0.6319 H   0  0  0  0  0  0  0  0  0  0  0  0
    4.6385   -5.9395   -1.3124 H   0  0  0  0  0  0  0  0  0  0  0  0
   -3.8053   -1.5834    1.0800 H   0  0  0  0  0  0  0  0  0  0  0  0
   -2.0987   -1.1565    0.6175 H   0  0  0  0  0  0  0  0  0  0  0  0
   -2.6406   -1.2911    3.2618 H   0  0  0  0  0  0  0  0  0  0  0  0
   -0.8955   -1.0731    4.9192 H   0  0  0  0  0  0  0  0  0  0  0  0
    0.5002    0.9181    4.9372 H   0  0  0  0  0  0  0  0  0  0  0  0
   -0.9344    4.6026    0.8108 H   0  0  0  0  0  0  0  0  0  0  0  0
    1.5439    6.6699    1.8694 H   0  0  0  0  0  0  0  0  0  0  0  0
  1  2  1  0      
  1 35  1  0      
  2  3  1  0      
  2 19  1  0      
  2 36  1  0      
  3  4  1  0      
  3 37  1  0      
  3 38  1  0      
  4  5  1  0      
  5  6  1  0      
 10  5  2  0      
  6  7  2  0      
  6 39  1  0      
  7  8  1  0      
  7 40  1  0      
  9  8  2  0      
  8 41  1  0      
  9 10  1  0      
 15  9  1  0      
 11 10  1  0      
 11 12  2  0      
 11 13  1  0      
 13 14  2  0      
 13 42  1  0      
 14 15  1  0      
 14 16  1  0      
 16 17  2  0      
 16 18  1  0      
 18 43  1  0      
 19 20  1  0      
 19 44  1  0      
 19 45  1  0      
 20 21  1  0      
 21 22  1  0      
 26 21  2  0      
 22 23  2  0      
 22 46  1  0      
 23 24  1  0      
 23 47  1  0      
 25 24  2  0      
 24 48  1  0      
 25 26  1  0      
 31 25  1  0      
 27 26  1  0      
 27 28  2  0      
 27 29  1  0      
 29 30  2  0      
 29 49  1  0      
 30 31  1  0      
 30 32  1  0      
 32 33  2  0      
 32 34  1  0      
 34 50  1  0      
M  END
