
  Chem3D Core 15.008161521493D

 58 60  0  0  0  0  0  0  0  0999 V2000
    0.7980    6.9781    1.1384 N   0  0  0  0  0  0  0  0  0  0  0  0
   -0.4119    7.2797    1.3278 C   0  0  0  0  0  0  0  0  0  0  0  0
   -1.3871    6.4805    1.3883 N   0  0  0  0  0  0  0  0  0  0  0  0
   -1.1979    5.2316    1.2276 C   0  0  0  0  0  0  0  0  0  0  0  0
    1.0618    5.7437    1.0496 C   0  0  0  0  0  0  0  0  0  0  0  0
    0.0870    4.8160    1.1061 C   0  0  0  0  0  0  0  0  0  0  0  0
    0.5206    3.5437    1.1299 C   0  0  0  0  0  0  0  0  0  0  0  0
    1.8002    3.1345    0.9884 C   0  0  0  0  0  0  0  0  0  0  0  0
    2.7470    4.0897    0.8140 C   0  0  0  0  0  0  0  0  0  0  0  0
    2.3405    5.3714    0.8888 C   0  0  0  0  0  0  0  0  0  0  0  0
    4.1044    3.8907    0.6711 O   0  0  0  0  0  0  0  0  0  0  0  0
    4.7106    2.6880    1.0807 C   0  0  0  0  0  0  0  0  0  0  0  0
    2.1640    1.8081    1.0021 O   0  0  0  0  0  0  0  0  0  0  0  0
    1.1927    0.7963    1.0479 C   0  0  0  0  0  0  0  0  0  0  0  0
    1.8969   -0.5591    0.9612 C   0  0  0  0  0  0  0  0  0  0  0  0
    0.8955   -1.7232    1.0295 C   0  0  0  0  0  0  0  0  0  0  0  0
    1.5892   -3.0909    0.9269 C   0  0  0  0  0  0  0  0  0  0  0  0
    0.5817   -4.2500    1.0015 C   0  0  0  0  0  0  0  0  0  0  0  0
    1.2717   -5.6182    0.8909 C   0  0  0  0  0  0  0  0  0  0  0  0
    0.2984   -6.7758    1.0259 C   0  0  0  0  0  0  0  0  0  0  0  0
    0.3531   -7.6296    1.8753 O   0  0  0  0  0  0  0  0  0  0  0  0
   -0.6881   -6.8110    0.0816 N   0  0  0  0  0  0  0  0  0  0  0  0
   -1.5757   -7.7812    0.1403 O   0  0  0  0  0  0  0  0  0  0  0  0
   -2.3009    4.5873    1.2094 N   0  0  0  0  0  0  0  0  0  0  0  0
   -2.8167    3.4655    0.8907 C   0  0  0  0  0  0  0  0  0  0  0  0
   -2.2644    2.4845    0.1524 C   0  0  0  0  0  0  0  0  0  0  0  0
   -2.9201    1.3447   -0.1273 C   0  0  0  0  0  0  0  0  0  0  0  0
   -4.1781    1.1750    0.3067 C   0  0  0  0  0  0  0  0  0  0  0  0
   -4.7700    2.1594    0.9971 C   0  0  0  0  0  0  0  0  0  0  0  0
   -4.1007    3.2910    1.2662 C   0  0  0  0  0  0  0  0  0  0  0  0
   -2.3486    0.4076   -0.8543 C   0  0  0  0  0  0  0  0  0  0  0  0
   -1.8201   -0.4530   -1.5247 C   0  0  0  0  0  0  0  0  0  0  0  0
   -0.6428    8.3532    1.4362 H   0  0  0  0  0  0  0  0  0  0  0  0
   -0.2214    2.7776    1.3689 H   0  0  0  0  0  0  0  0  0  0  0  0
    3.1137    6.1583    0.8217 H   0  0  0  0  0  0  0  0  0  0  0  0
    5.8127    2.8444    1.0619 H   0  0  0  0  0  0  0  0  0  0  0  0
    4.4185    2.4400    2.1251 H   0  0  0  0  0  0  0  0  0  0  0  0
    4.4877    1.8686    0.3632 H   0  0  0  0  0  0  0  0  0  0  0  0
    0.6371    0.8543    2.0126 H   0  0  0  0  0  0  0  0  0  0  0  0
    0.5032    0.9049    0.1791 H   0  0  0  0  0  0  0  0  0  0  0  0
    2.6309   -0.6506    1.7974 H   0  0  0  0  0  0  0  0  0  0  0  0
    2.4719   -0.6175    0.0061 H   0  0  0  0  0  0  0  0  0  0  0  0
    0.1570   -1.6235    0.1996 H   0  0  0  0  0  0  0  0  0  0  0  0
    0.3275   -1.6667    1.9885 H   0  0  0  0  0  0  0  0  0  0  0  0
    2.3323   -3.1912    1.7535 H   0  0  0  0  0  0  0  0  0  0  0  0
    2.1500   -3.1503   -0.0361 H   0  0  0  0  0  0  0  0  0  0  0  0
   -0.1665   -4.1371    0.1813 H   0  0  0  0  0  0  0  0  0  0  0  0
    0.0274   -4.1974    1.9689 H   0  0  0  0  0  0  0  0  0  0  0  0
    2.0485   -5.7104    1.6860 H   0  0  0  0  0  0  0  0  0  0  0  0
    1.7907   -5.7115   -0.0917 H   0  0  0  0  0  0  0  0  0  0  0  0
   -0.7272   -6.1011   -0.6337 H   0  0  0  0  0  0  0  0  0  0  0  0
   -1.3770   -8.3532    0.8670 H   0  0  0  0  0  0  0  0  0  0  0  0
   -3.0698    5.2209    1.5557 H   0  0  0  0  0  0  0  0  0  0  0  0
   -1.2784    2.6126   -0.3160 H   0  0  0  0  0  0  0  0  0  0  0  0
   -4.7387    0.2524    0.0795 H   0  0  0  0  0  0  0  0  0  0  0  0
   -5.8127    2.0395    1.3370 H   0  0  0  0  0  0  0  0  0  0  0  0
   -4.6404    4.0710    1.8325 H   0  0  0  0  0  0  0  0  0  0  0  0
   -1.3424   -1.2270   -2.1251 H   0  0  0  0  0  0  0  0  0  0  0  0
  1  2  1  0      
  5  1  2  0      
  2  3  2  0      
  2 33  1  0      
  3  4  1  0      
  4  6  2  0      
  4 24  1  0      
  5  6  1  0      
 10  5  1  0      
  6  7  1  0      
  7  8  2  0      
  7 34  1  0      
  9  8  1  0      
  8 13  1  0      
  9 10  2  0      
  9 11  1  0      
 10 35  1  0      
 11 12  1  0      
 12 36  1  0      
 12 37  1  0      
 12 38  1  0      
 13 14  1  0      
 14 15  1  0      
 14 39  1  0      
 14 40  1  0      
 15 16  1  0      
 15 41  1  0      
 15 42  1  0      
 16 17  1  0      
 16 43  1  0      
 16 44  1  0      
 17 18  1  0      
 17 45  1  0      
 17 46  1  0      
 18 19  1  0      
 18 47  1  0      
 18 48  1  0      
 19 20  1  0      
 19 49  1  0      
 19 50  1  0      
 20 21  2  0      
 20 22  1  0      
 22 23  1  0      
 22 51  1  0      
 23 52  1  0      
 24 25  1  0      
 24 53  1  0      
 25 26  1  0      
 25 30  2  0      
 26 27  2  0      
 26 54  1  0      
 27 28  1  0      
 27 31  1  0      
 28 29  2  0      
 28 55  1  0      
 29 30  1  0      
 29 56  1  0      
 30 57  1  0      
 31 32  3  0      
 32 58  1  0      
M  END
