
  Chem3D Core 15.008141512593D

 60 64  0  0  0  0  0  0  0  0999 V2000
   -6.4567   -1.1526    0.6461 C   0  0  0  0  0  0  0  0  0  0  0  0
   -5.8814   -0.0260    0.6653 N   0  0  0  0  0  0  0  0  0  0  0  0
   -5.2125    0.4017   -0.3310 C   0  0  0  0  0  0  0  0  0  0  0  0
   -5.1312   -0.3281   -1.3714 N   0  0  0  0  0  0  0  0  0  0  0  0
   -5.6895   -1.4607   -1.4348 C   0  0  0  0  0  0  0  0  0  0  0  0
   -6.4039   -1.9682   -0.4184 C   0  0  0  0  0  0  0  0  0  0  0  0
   -7.0030   -3.1875   -0.4891 C   0  0  0  0  0  0  0  0  0  0  0  0
   -7.6972   -3.5971    0.6131 N   0  0  0  0  0  0  0  0  0  0  0  0
   -8.2949   -4.7695    0.5854 O   0  0  0  0  0  0  0  0  0  0  0  0
   -6.9643   -3.9257   -1.4457 O   0  0  0  0  0  0  0  0  0  0  0  0
   -4.6346    1.5408   -0.2740 N   0  0  0  0  0  0  0  0  0  0  0  0
   -4.7612    2.3238    0.9791 C   0  0  0  0  0  0  0  0  0  0  0  0
   -3.8386    2.0205   -1.4318 C   0  0  0  0  0  0  0  0  0  0  0  0
   -2.3798    1.6998   -1.2091 C   0  0  0  0  0  0  0  0  0  0  0  0
   -1.4490    2.5925   -0.8541 C   0  0  0  0  0  0  0  0  0  0  0  0
   -0.2777    1.9600   -0.7408 C   0  0  0  0  0  0  0  0  0  0  0  0
   -0.3860    0.6505   -1.0143 C   0  0  0  0  0  0  0  0  0  0  0  0
   -1.7900    0.3628   -1.3501 S   0  0  0  0  0  0  0  0  0  0  0  0
    0.7265   -0.1187   -0.9300 C   0  0  0  0  0  0  0  0  0  0  0  0
    1.7712    0.5276   -0.5850 N   0  0  0  0  0  0  0  0  0  0  0  0
    1.8408    1.7713   -0.3371 C   0  0  0  0  0  0  0  0  0  0  0  0
    0.8101    2.5038   -0.4142 N   0  0  0  0  0  0  0  0  0  0  0  0
    3.0285    2.3210    0.0144 C   0  0  0  0  0  0  0  0  0  0  0  0
    3.1718    3.6323    0.2888 C   0  0  0  0  0  0  0  0  0  0  0  0
    4.3761    4.1144    0.6293 C   0  0  0  0  0  0  0  0  0  0  0  0
    5.4435    3.3006    0.7048 C   0  0  0  0  0  0  0  0  0  0  0  0
    5.3031    2.0687    0.4409 N   0  0  0  0  0  0  0  0  0  0  0  0
    4.1690    1.6081    0.1184 C   0  0  0  0  0  0  0  0  0  0  0  0
    6.6900    3.7707    1.0407 O   0  0  0  0  0  0  0  0  0  0  0  0
    7.3578    3.0497    2.0518 C   0  0  0  0  0  0  0  0  0  0  0  0
    0.8307   -1.3817   -1.1402 N   0  0  0  0  0  0  0  0  0  0  0  0
   -0.3327   -2.2283   -1.4965 C   0  0  0  0  0  0  0  0  0  0  0  0
    0.0323   -3.6620   -1.8845 C   0  0  0  0  0  0  0  0  0  0  0  0
    1.0876   -4.1506   -1.0996 O   0  0  0  0  0  0  0  0  0  0  0  0
    2.2696   -3.4466   -1.3749 C   0  0  0  0  0  0  0  0  0  0  0  0
    2.1639   -2.0021   -0.8928 C   0  0  0  0  0  0  0  0  0  0  0  0
   -6.9993   -1.4031    1.5713 H   0  0  0  0  0  0  0  0  0  0  0  0
   -5.5467   -2.0019   -2.3849 H   0  0  0  0  0  0  0  0  0  0  0  0
   -7.7441   -3.0038    1.4251 H   0  0  0  0  0  0  0  0  0  0  0  0
   -8.1395   -5.1883   -0.2480 H   0  0  0  0  0  0  0  0  0  0  0  0
   -5.8205    2.6109    1.1697 H   0  0  0  0  0  0  0  0  0  0  0  0
   -4.3484    1.7652    1.8500 H   0  0  0  0  0  0  0  0  0  0  0  0
   -4.1759    3.2676    0.9039 H   0  0  0  0  0  0  0  0  0  0  0  0
   -4.1907    1.6514   -2.4204 H   0  0  0  0  0  0  0  0  0  0  0  0
   -3.9652    3.1258   -1.5050 H   0  0  0  0  0  0  0  0  0  0  0  0
   -1.6204    3.6631   -0.6793 H   0  0  0  0  0  0  0  0  0  0  0  0
    2.3320    4.3449    0.2445 H   0  0  0  0  0  0  0  0  0  0  0  0
    4.4947    5.1883    0.8506 H   0  0  0  0  0  0  0  0  0  0  0  0
    4.1957    0.5229   -0.0796 H   0  0  0  0  0  0  0  0  0  0  0  0
    8.2949    3.5953    2.3023 H   0  0  0  0  0  0  0  0  0  0  0  0
    6.7177    2.9894    2.9605 H   0  0  0  0  0  0  0  0  0  0  0  0
    7.6264    2.0318    1.6918 H   0  0  0  0  0  0  0  0  0  0  0  0
   -0.8690   -1.8253   -2.3873 H   0  0  0  0  0  0  0  0  0  0  0  0
   -1.0141   -2.2834   -0.6128 H   0  0  0  0  0  0  0  0  0  0  0  0
    0.3144   -3.7356   -2.9605 H   0  0  0  0  0  0  0  0  0  0  0  0
   -0.8419   -4.3393   -1.7408 H   0  0  0  0  0  0  0  0  0  0  0  0
    3.1075   -3.9700   -0.8576 H   0  0  0  0  0  0  0  0  0  0  0  0
    2.4862   -3.4974   -2.4668 H   0  0  0  0  0  0  0  0  0  0  0  0
    2.3529   -1.9927    0.2089 H   0  0  0  0  0  0  0  0  0  0  0  0
    2.9865   -1.4444   -1.4028 H   0  0  0  0  0  0  0  0  0  0  0  0
  1  2  1  0      
  6  1  2  0      
  1 37  1  0      
  2  3  2  0      
  3  4  1  0      
  3 11  1  0      
  5  4  2  0      
  5  6  1  0      
  5 38  1  0      
  6  7  1  0      
  7  8  1  0      
  7 10  2  0      
  8  9  1  0      
  8 39  1  0      
  9 40  1  0      
 11 12  1  0      
 11 13  1  0      
 12 41  1  0      
 12 42  1  0      
 12 43  1  0      
 13 14  1  0      
 13 44  1  0      
 13 45  1  0      
 14 15  2  0      
 18 14  1  0      
 15 16  1  0      
 15 46  1  0      
 17 16  2  0      
 16 22  1  0      
 17 18  1  0      
 19 17  1  0      
 20 19  2  0      
 19 31  1  0      
 21 20  1  0      
 21 22  2  0      
 21 23  1  0      
 23 24  1  0      
 23 28  2  0      
 24 25  2  0      
 24 47  1  0      
 25 26  1  0      
 25 48  1  0      
 26 27  2  0      
 26 29  1  0      
 27 28  1  0      
 28 49  1  0      
 29 30  1  0      
 30 50  1  0      
 30 51  1  0      
 30 52  1  0      
 31 32  1  0      
 31 36  1  0      
 32 33  1  0      
 32 53  1  0      
 32 54  1  0      
 33 34  1  0      
 33 55  1  0      
 33 56  1  0      
 34 35  1  0      
 35 36  1  0      
 35 57  1  0      
 35 58  1  0      
 36 59  1  0      
 36 60  1  0      
M  END
