
  Chem3D Core 15.003181609453D

 97102  0  0  0  0  0  0  0  0999 V2000
    1.5408    5.6824    1.2513 S   0  0  0  0  0  0  0  0  0  0  0  0
   -4.4569   -2.7270   -3.9118 F   0  0  0  0  0  0  0  0  0  0  0  0
    2.8539    3.3434   -0.0418 O   0  0  0  0  0  0  0  0  0  0  0  0
    1.1591    6.8792    0.4927 O   0  0  0  0  0  0  0  0  0  0  0  0
    2.5554    5.7359    2.3080 O   0  0  0  0  0  0  0  0  0  0  0  0
    2.8109    3.8384   -3.4062 O   0  0  0  0  0  0  0  0  0  0  0  0
   -0.3338    0.7134   -2.4124 O   0  0  0  0  0  0  0  0  0  0  0  0
    5.4225    0.3864   -1.8956 O   0  0  0  0  0  0  0  0  0  0  0  0
   -0.9164    1.4225   -0.3561 O   0  0  0  0  0  0  0  0  0  0  0  0
    5.2139   -3.8262   -0.1694 O   0  0  0  0  0  0  0  0  0  0  0  0
    3.3320   -2.7110   -0.7756 O   0  0  0  0  0  0  0  0  0  0  0  0
    4.4775    3.1721   -2.0405 N   0  0  0  0  0  0  0  0  0  0  0  0
    2.8257    5.5714    0.1291 N   0  0  0  0  0  0  0  0  0  0  0  0
    3.1914    0.7272   -1.8846 N   0  0  0  0  0  0  0  0  0  0  0  0
    4.9882   -1.5614    0.1838 N   0  0  0  0  0  0  0  0  0  0  0  0
   -2.3097    0.0009   -1.3708 N   0  0  0  0  0  0  0  0  0  0  0  0
    4.4943    4.4003   -1.2690 C   0  0  0  0  0  0  0  0  0  0  0  0
    5.8072    4.9975   -0.8285 C   0  0  0  0  0  0  0  0  0  0  0  0
    5.0083    5.6445   -1.9395 C   0  0  0  0  0  0  0  0  0  0  0  0
    3.3461    4.3996   -0.3586 C   0  0  0  0  0  0  0  0  0  0  0  0
    5.6697    5.7661    0.4320 C   0  0  0  0  0  0  0  0  0  0  0  0
    0.3493    4.3540    1.2888 C   0  0  0  0  0  0  0  0  0  0  0  0
    0.6710    3.2487    2.2589 C   0  0  0  0  0  0  0  0  0  0  0  0
   -0.4092    4.2522    2.5831 C   0  0  0  0  0  0  0  0  0  0  0  0
    3.4561    2.9373   -2.9285 C   0  0  0  0  0  0  0  0  0  0  0  0
    3.1306    1.4572   -3.1499 C   0  0  0  0  0  0  0  0  0  0  0  0
    1.6852    1.2137   -3.6186 C   0  0  0  0  0  0  0  0  0  0  0  0
    5.8402    5.2454    1.6579 C   0  0  0  0  0  0  0  0  0  0  0  0
    0.9224    1.3096   -2.2970 C   0  0  0  0  0  0  0  0  0  0  0  0
    1.8527    0.5724   -1.3237 C   0  0  0  0  0  0  0  0  0  0  0  0
    6.1721    3.8111    1.9894 C   0  0  0  0  0  0  0  0  0  0  0  0
    4.3630    0.2795   -1.3296 C   0  0  0  0  0  0  0  0  0  0  0  0
    5.1298    3.1981    2.9440 C   0  0  0  0  0  0  0  0  0  0  0  0
    4.3040   -0.2666    0.1007 C   0  0  0  0  0  0  0  0  0  0  0  0
    5.4113    1.7319    3.3324 C   0  0  0  0  0  0  0  0  0  0  0  0
    5.0034    0.7756    0.9928 C   0  0  0  0  0  0  0  0  0  0  0  0
    4.6743    0.6762    2.4852 C   0  0  0  0  0  0  0  0  0  0  0  0
   -1.1719    0.7597   -1.3346 C   0  0  0  0  0  0  0  0  0  0  0  0
   -2.7021   -0.8461   -2.4921 C   0  0  0  0  0  0  0  0  0  0  0  0
   -3.2881   -0.0691   -0.2902 C   0  0  0  0  0  0  0  0  0  0  0  0
    4.4303   -2.7198   -0.2744 C   0  0  0  0  0  0  0  0  0  0  0  0
   -4.0004   -1.4497   -2.0407 C   0  0  0  0  0  0  0  0  0  0  0  0
   -4.3253   -1.0176   -0.8167 C   0  0  0  0  0  0  0  0  0  0  0  0
   -4.7878   -2.3074   -2.7031 C   0  0  0  0  0  0  0  0  0  0  0  0
   -5.4490   -1.4302   -0.2161 C   0  0  0  0  0  0  0  0  0  0  0  0
    4.9513   -5.0052   -0.8689 C   0  0  0  0  0  0  0  0  0  0  0  0
   -5.9166   -2.7241   -2.1041 C   0  0  0  0  0  0  0  0  0  0  0  0
   -6.2444   -2.2906   -0.8738 C   0  0  0  0  0  0  0  0  0  0  0  0
    3.7361   -5.7305   -0.2763 C   0  0  0  0  0  0  0  0  0  0  0  0
    6.1923   -5.8922   -0.6696 C   0  0  0  0  0  0  0  0  0  0  0  0
    4.7756   -4.7542   -2.3728 C   0  0  0  0  0  0  0  0  0  0  0  0
    6.7387    4.4582   -1.0113 H   0  0  0  0  0  0  0  0  0  0  0  0
    5.0576    2.3825   -1.7955 H   0  0  0  0  0  0  0  0  0  0  0  0
    3.2536    6.4383   -0.1505 H   0  0  0  0  0  0  0  0  0  0  0  0
    3.8479    1.0555   -3.9026 H   0  0  0  0  0  0  0  0  0  0  0  0
    5.9469   -1.6102    0.5225 H   0  0  0  0  0  0  0  0  0  0  0  0
    4.4706    6.5741   -1.7694 H   0  0  0  0  0  0  0  0  0  0  0  0
    5.4127    5.5437   -2.9456 H   0  0  0  0  0  0  0  0  0  0  0  0
    5.4518    6.8456    0.3566 H   0  0  0  0  0  0  0  0  0  0  0  0
   -0.0767    4.2110    0.2992 H   0  0  0  0  0  0  0  0  0  0  0  0
    0.3629    2.2441    1.9743 H   0  0  0  0  0  0  0  0  0  0  0  0
    1.5861    3.2860    2.8462 H   0  0  0  0  0  0  0  0  0  0  0  0
   -0.2100    4.9636    3.3828 H   0  0  0  0  0  0  0  0  0  0  0  0
   -1.4436    3.9177    2.5179 H   0  0  0  0  0  0  0  0  0  0  0  0
    1.5940    0.1807   -4.0325 H   0  0  0  0  0  0  0  0  0  0  0  0
    1.3235    1.9244   -4.3934 H   0  0  0  0  0  0  0  0  0  0  0  0
    5.7334    5.9226    2.5241 H   0  0  0  0  0  0  0  0  0  0  0  0
    0.8093    2.3866   -2.0262 H   0  0  0  0  0  0  0  0  0  0  0  0
    1.7692    1.0096   -0.3041 H   0  0  0  0  0  0  0  0  0  0  0  0
    1.5948   -0.5115   -1.2907 H   0  0  0  0  0  0  0  0  0  0  0  0
    6.2698    3.2106    1.0612 H   0  0  0  0  0  0  0  0  0  0  0  0
    7.1750    3.8004    2.4784 H   0  0  0  0  0  0  0  0  0  0  0  0
    5.1249    3.8167    3.8750 H   0  0  0  0  0  0  0  0  0  0  0  0
    4.1067    3.2854    2.5112 H   0  0  0  0  0  0  0  0  0  0  0  0
    3.2635   -0.3926    0.4694 H   0  0  0  0  0  0  0  0  0  0  0  0
    6.5093    1.5393    3.3096 H   0  0  0  0  0  0  0  0  0  0  0  0
    5.0936    1.5773    4.3934 H   0  0  0  0  0  0  0  0  0  0  0  0
    4.6748    1.7808    0.6473 H   0  0  0  0  0  0  0  0  0  0  0  0
    6.1074    0.7178    0.8436 H   0  0  0  0  0  0  0  0  0  0  0  0
    4.9427   -0.3451    2.8477 H   0  0  0  0  0  0  0  0  0  0  0  0
    3.5734    0.7962    2.6289 H   0  0  0  0  0  0  0  0  0  0  0  0
   -2.8528   -0.2356   -3.4116 H   0  0  0  0  0  0  0  0  0  0  0  0
   -1.9424   -1.6415   -2.6685 H   0  0  0  0  0  0  0  0  0  0  0  0
   -3.7377    0.9320   -0.0989 H   0  0  0  0  0  0  0  0  0  0  0  0
   -2.8239   -0.4764    0.6369 H   0  0  0  0  0  0  0  0  0  0  0  0
   -5.7074   -1.0686    0.7915 H   0  0  0  0  0  0  0  0  0  0  0  0
   -6.5811   -3.4301   -2.6295 H   0  0  0  0  0  0  0  0  0  0  0  0
   -7.1750   -2.6440   -0.3987 H   0  0  0  0  0  0  0  0  0  0  0  0
    3.6042   -6.7312   -0.7467 H   0  0  0  0  0  0  0  0  0  0  0  0
    2.7826   -5.1817   -0.4322 H   0  0  0  0  0  0  0  0  0  0  0  0
    3.8548   -5.8879    0.8198 H   0  0  0  0  0  0  0  0  0  0  0  0
    6.0789   -6.8792   -1.1724 H   0  0  0  0  0  0  0  0  0  0  0  0
    7.1064   -5.4087   -1.0842 H   0  0  0  0  0  0  0  0  0  0  0  0
    6.3804   -6.0881    0.4108 H   0  0  0  0  0  0  0  0  0  0  0  0
    5.6094   -4.1364   -2.7776 H   0  0  0  0  0  0  0  0  0  0  0  0
    4.7698   -5.7159   -2.9343 H   0  0  0  0  0  0  0  0  0  0  0  0
    3.8214   -4.2485   -2.6328 H   0  0  0  0  0  0  0  0  0  0  0  0
  1  4  2  0      
  1  5  2  0      
  1 13  1  0      
  1 22  1  0      
  2 44  1  0      
  3 20  2  0      
  6 25  2  0      
 29  7  1  0      
  7 38  1  0      
  8 32  2  0      
  9 38  2  0      
 10 41  1  0      
 10 46  1  0      
 11 41  2  0      
 12 17  1  0      
 12 25  1  0      
 12 53  1  0      
 13 20  1  0      
 13 54  1  0      
 14 26  1  0      
 14 30  1  0      
 14 32  1  0      
 34 15  1  0      
 15 41  1  0      
 15 56  1  0      
 16 38  1  0      
 16 39  1  0      
 16 40  1  0      
 17 18  1  0      
 17 19  1  0      
 17 20  1  0      
 18 19  1  0      
 18 21  1  0      
 18 52  1  0      
 19 57  1  0      
 19 58  1  0      
 21 28  2  0      
 21 59  1  0      
 22 23  1  0      
 22 24  1  0      
 22 60  1  0      
 23 24  1  0      
 23 61  1  0      
 23 62  1  0      
 24 63  1  0      
 24 64  1  0      
 25 26  1  0      
 26 27  1  0      
 26 55  1  0      
 27 29  1  0      
 27 65  1  0      
 27 66  1  0      
 28 31  1  0      
 28 67  1  0      
 29 30  1  0      
 29 68  1  0      
 30 69  1  0      
 30 70  1  0      
 31 33  1  0      
 31 71  1  0      
 31 72  1  0      
 32 34  1  0      
 33 35  1  0      
 33 73  1  0      
 33 74  1  0      
 34 36  1  0      
 34 75  1  0      
 35 37  1  0      
 35 76  1  0      
 35 77  1  0      
 36 37  1  0      
 36 78  1  0      
 36 79  1  0      
 37 80  1  0      
 37 81  1  0      
 39 42  1  0      
 39 82  1  0      
 39 83  1  0      
 43 40  1  0      
 40 84  1  0      
 40 85  1  0      
 42 43  2  0      
 42 44  1  0      
 45 43  1  0      
 44 47  2  0      
 48 45  2  0      
 45 86  1  0      
 46 49  1  0      
 46 50  1  0      
 46 51  1  0      
 47 48  1  0      
 47 87  1  0      
 48 88  1  0      
 49 89  1  0      
 49 90  1  0      
 49 91  1  0      
 50 92  1  0      
 50 93  1  0      
 50 94  1  0      
 51 95  1  0      
 51 96  1  0      
 51 97  1  0      
M  END
