
  Chem3D Core 15.010151513113D

 26 28  0  0  0  0  0  0  0  0999 V2000
    2.5727   -1.0487    0.3132 C   0  0  0  0  0  0  0  0  0  0  0  0
    1.9999    1.5673    0.0673 C   0  0  0  0  0  0  0  0  0  0  0  0
    3.2684    1.1331    0.1797 C   0  0  0  0  0  0  0  0  0  0  0  0
    3.5710   -0.1605    0.3071 C   0  0  0  0  0  0  0  0  0  0  0  0
    0.9880    0.6554    0.0702 C   0  0  0  0  0  0  0  0  0  0  0  0
    1.2870   -0.6577    0.1954 C   0  0  0  0  0  0  0  0  0  0  0  0
   -0.3230    1.0372   -0.0414 C   0  0  0  0  0  0  0  0  0  0  0  0
   -1.3072    0.0849   -0.0344 C   0  0  0  0  0  0  0  0  0  0  0  0
   -0.9783   -1.2193    0.0882 C   0  0  0  0  0  0  0  0  0  0  0  0
   -1.9469   -2.1585    0.0960 C   0  0  0  0  0  0  0  0  0  0  0  0
   -3.2373   -1.8268   -0.0164 C   0  0  0  0  0  0  0  0  0  0  0  0
   -3.5561   -0.5361   -0.1378 C   0  0  0  0  0  0  0  0  0  0  0  0
   -2.6184    0.4271   -0.1490 C   0  0  0  0  0  0  0  0  0  0  0  0
   -0.5997    2.2148   -0.1419 O   0  0  0  0  0  0  0  0  0  0  0  0
   -3.0855    1.7026   -0.2806 O   0  0  0  0  0  0  0  0  0  0  0  0
    0.3198   -1.6201    0.2071 C   0  0  0  0  0  0  0  0  0  0  0  0
    0.6028   -2.8002    0.3190 O   0  0  0  0  0  0  0  0  0  0  0  0
    1.8757    2.9222   -0.0735 O   0  0  0  0  0  0  0  0  0  0  0  0
    2.8816   -2.1018    0.4181 H   0  0  0  0  0  0  0  0  0  0  0  0
    4.0961    1.8636    0.1664 H   0  0  0  0  0  0  0  0  0  0  0  0
    4.6210   -0.4851    0.3997 H   0  0  0  0  0  0  0  0  0  0  0  0
   -1.7443   -3.2379    0.1932 H   0  0  0  0  0  0  0  0  0  0  0  0
   -4.0242   -2.5996   -0.0096 H   0  0  0  0  0  0  0  0  0  0  0  0
   -4.6210   -0.2619   -0.2312 H   0  0  0  0  0  0  0  0  0  0  0  0
   -4.0539    1.6909   -0.3474 H   0  0  0  0  0  0  0  0  0  0  0  0
    1.0324    3.2379   -0.4181 H   0  0  0  0  0  0  0  0  0  0  0  0
  1  4  1  0      
  1  6  2  0      
  1 19  1  0      
  3  2  1  0      
  2  5  2  0      
  2 18  1  0      
  4  3  2  0      
  3 20  1  0      
  4 21  1  0      
  5  6  1  0      
  5  7  1  0      
 16  6  1  0      
  7  8  1  0      
  7 14  2  0      
  8  9  2  0      
  8 13  1  0      
 10  9  1  0      
  9 16  1  0      
 11 10  2  0      
 10 22  1  0      
 12 11  1  0      
 11 23  1  0      
 13 12  2  0      
 12 24  1  0      
 13 15  1  0      
 15 25  1  0      
 16 17  2  0      
 18 26  1  0      
M  END
