
  Chem3D Core 15.003241614423D

 44 46  0  0  0  0  0  0  0  0999 V2000
    1.6496   -0.5225    0.0230 N   0  0  0  0  0  0  0  0  0  0  0  0
    1.5254    1.5706   -0.4044 N   0  0  0  0  0  0  0  0  0  0  0  0
    1.1596    3.7379   -0.8888 N   0  0  0  0  0  0  0  0  0  0  0  0
    3.1333    3.0728   -0.3521 N   0  0  0  0  0  0  0  0  0  0  0  0
   -4.9972    5.0058   -2.4185 N   0  0  0  0  0  0  0  0  0  0  0  0
    1.7141   -1.7613    0.3345 C   0  0  0  0  0  0  0  0  0  0  0  0
    0.5976   -2.4568   -0.0207 C   0  0  0  0  0  0  0  0  0  0  0  0
    2.6976   -2.4470    0.9677 C   0  0  0  0  0  0  0  0  0  0  0  0
    1.4923   -4.4695    0.7947 C   0  0  0  0  0  0  0  0  0  0  0  0
    0.5084   -3.7802    0.2064 C   0  0  0  0  0  0  0  0  0  0  0  0
    2.5699   -3.7725    1.1733 C   0  0  0  0  0  0  0  0  0  0  0  0
   -0.6037   -1.8325   -0.7241 C   0  0  0  0  0  0  0  0  0  0  0  0
    3.9383   -1.8464    1.5875 C   0  0  0  0  0  0  0  0  0  0  0  0
    1.3970   -5.9550    1.0487 C   0  0  0  0  0  0  0  0  0  0  0  0
    2.2638    0.5941   -0.0546 C   0  0  0  0  0  0  0  0  0  0  0  0
    3.5583    0.8912    0.1370 C   0  0  0  0  0  0  0  0  0  0  0  0
    1.9156    2.7696   -0.5483 C   0  0  0  0  0  0  0  0  0  0  0  0
   -0.0733    3.8865   -1.1752 C   0  0  0  0  0  0  0  0  0  0  0  0
    3.9440    2.1634   -0.0253 C   0  0  0  0  0  0  0  0  0  0  0  0
   -0.4506    5.1419   -1.4896 C   0  0  0  0  0  0  0  0  0  0  0  0
   -1.0232    2.9321   -1.1958 C   0  0  0  0  0  0  0  0  0  0  0  0
   -1.7200    5.4377   -1.8112 C   0  0  0  0  0  0  0  0  0  0  0  0
   -2.2955    3.2194   -1.5167 C   0  0  0  0  0  0  0  0  0  0  0  0
   -2.6541    4.4747   -1.8269 C   0  0  0  0  0  0  0  0  0  0  0  0
   -3.9006    4.7566   -2.1414 C   0  0  0  0  0  0  0  0  0  0  0  0
    0.6855   -0.3032   -0.3292 H   0  0  0  0  0  0  0  0  0  0  0  0
    1.6934    4.6438   -0.9474 H   0  0  0  0  0  0  0  0  0  0  0  0
   -0.3938   -4.3344   -0.0993 H   0  0  0  0  0  0  0  0  0  0  0  0
    3.3662   -4.3327    1.6918 H   0  0  0  0  0  0  0  0  0  0  0  0
   -1.1086   -1.0891   -0.0652 H   0  0  0  0  0  0  0  0  0  0  0  0
   -0.3043   -1.3479   -1.6818 H   0  0  0  0  0  0  0  0  0  0  0  0
   -1.3896   -2.5687   -1.0026 H   0  0  0  0  0  0  0  0  0  0  0  0
    4.3446   -2.4656    2.4185 H   0  0  0  0  0  0  0  0  0  0  0  0
    4.7612   -1.7806    0.8412 H   0  0  0  0  0  0  0  0  0  0  0  0
    3.7089   -0.8842    2.0955 H   0  0  0  0  0  0  0  0  0  0  0  0
    0.5016   -6.4145    0.5740 H   0  0  0  0  0  0  0  0  0  0  0  0
    2.2916   -6.4786    0.6412 H   0  0  0  0  0  0  0  0  0  0  0  0
    1.3399   -6.1534    2.1432 H   0  0  0  0  0  0  0  0  0  0  0  0
    4.3383    0.1711    0.3840 H   0  0  0  0  0  0  0  0  0  0  0  0
    4.9972    2.4605    0.1130 H   0  0  0  0  0  0  0  0  0  0  0  0
    0.2804    5.9700   -1.4913 H   0  0  0  0  0  0  0  0  0  0  0  0
   -0.8125    1.8804   -0.9550 H   0  0  0  0  0  0  0  0  0  0  0  0
   -1.9877    6.4786   -2.0622 H   0  0  0  0  0  0  0  0  0  0  0  0
   -3.0476    2.4111   -1.5235 H   0  0  0  0  0  0  0  0  0  0  0  0
  1  6  1  0      
  1 15  1  0      
  1 26  1  0      
 15  2  1  0      
  2 17  2  0      
  3 17  1  0      
  3 18  1  0      
  3 27  1  0      
 17  4  1  0      
 19  4  2  0      
  5 25  3  0      
  6  7  1  0      
  6  8  2  0      
  7 10  2  0      
  7 12  1  0      
 11  8  1  0      
  8 13  1  0      
 10  9  1  0      
  9 11  2  0      
  9 14  1  0      
 10 28  1  0      
 11 29  1  0      
 12 30  1  0      
 12 31  1  0      
 12 32  1  0      
 13 33  1  0      
 13 34  1  0      
 13 35  1  0      
 14 36  1  0      
 14 37  1  0      
 14 38  1  0      
 16 15  2  0      
 19 16  1  0      
 16 39  1  0      
 18 20  1  0      
 18 21  2  0      
 19 40  1  0      
 20 22  2  0      
 20 41  1  0      
 23 21  1  0      
 21 42  1  0      
 22 24  1  0      
 22 43  1  0      
 24 23  2  0      
 23 44  1  0      
 24 25  1  0      
M  END
