
  Chem3D Core 15.003241614373D

 47 49  0  0  0  0  0  0  0  0999 V2000
    1.0527   -0.9327   -0.6911 N   0  0  0  0  0  0  0  0  0  0  0  0
    0.0991   -1.7368   -0.9259 C   0  0  0  0  0  0  0  0  0  0  0  0
   -1.1467   -1.4896   -0.8572 N   0  0  0  0  0  0  0  0  0  0  0  0
    0.4034   -2.9948   -1.2892 C   0  0  0  0  0  0  0  0  0  0  0  0
    1.7014   -3.3070   -1.3739 C   0  0  0  0  0  0  0  0  0  0  0  0
   -1.7890   -0.1988   -0.4831 C   0  0  0  0  0  0  0  0  0  0  0  0
   -4.1063    0.1474   -1.1352 O   0  0  0  0  0  0  0  0  0  0  0  0
   -3.2970   -0.4965   -0.5136 C   0  0  0  0  0  0  0  0  0  0  0  0
   -3.6611   -1.5799    0.2388 N   0  0  0  0  0  0  0  0  0  0  0  0
   -1.4543    0.8856   -1.5242 C   0  0  0  0  0  0  0  0  0  0  0  0
   -1.4310    0.2141    0.9628 C   0  0  0  0  0  0  0  0  0  0  0  0
   -2.1798    1.4461    1.4910 C   0  0  0  0  0  0  0  0  0  0  0  0
    3.9578    3.3037    0.5151 C   0  0  0  0  0  0  0  0  0  0  0  0
    4.8843    2.4713    0.2887 N   0  0  0  0  0  0  0  0  0  0  0  0
    2.6500    3.0133    0.4207 C   0  0  0  0  0  0  0  0  0  0  0  0
    2.2926    1.7689    0.0663 C   0  0  0  0  0  0  0  0  0  0  0  0
    4.5493    1.2987   -0.0451 C   0  0  0  0  0  0  0  0  0  0  0  0
    3.2732    0.8864   -0.1717 C   0  0  0  0  0  0  0  0  0  0  0  0
    5.2764    0.2991   -0.3222 N   0  0  0  0  0  0  0  0  0  0  0  0
    4.5831   -0.7192   -0.6160 C   0  0  0  0  0  0  0  0  0  0  0  0
    3.2750   -0.4115   -0.5375 C   0  0  0  0  0  0  0  0  0  0  0  0
    2.2713   -1.2789   -0.7881 C   0  0  0  0  0  0  0  0  0  0  0  0
   -5.0554   -2.0232    0.3634 C   0  0  0  0  0  0  0  0  0  0  0  0
   -6.3222   -3.7824    1.1618 F   0  0  0  0  0  0  0  0  0  0  0  0
   -4.4564   -4.2411    0.3026 F   0  0  0  0  0  0  0  0  0  0  0  0
   -4.5431   -3.3192    2.1854 F   0  0  0  0  0  0  0  0  0  0  0  0
   -5.1005   -3.3537    1.0075 C   0  0  0  0  0  0  0  0  0  0  0  0
    2.6019   -2.4585   -1.1253 N   0  0  0  0  0  0  0  0  0  0  0  0
   -1.7707   -2.2985   -1.1058 H   0  0  0  0  0  0  0  0  0  0  0  0
   -0.3607   -3.7580   -1.5118 H   0  0  0  0  0  0  0  0  0  0  0  0
    2.0261   -4.3197   -1.6643 H   0  0  0  0  0  0  0  0  0  0  0  0
   -2.9367   -2.0740    0.7613 H   0  0  0  0  0  0  0  0  0  0  0  0
   -0.3719    1.1329   -1.5392 H   0  0  0  0  0  0  0  0  0  0  0  0
   -1.7194    0.5449   -2.5512 H   0  0  0  0  0  0  0  0  0  0  0  0
   -1.9971    1.8381   -1.3370 H   0  0  0  0  0  0  0  0  0  0  0  0
   -0.3397    0.4119    1.0488 H   0  0  0  0  0  0  0  0  0  0  0  0
   -1.6321   -0.6415    1.6512 H   0  0  0  0  0  0  0  0  0  0  0  0
   -1.9032    1.6506    2.5512 H   0  0  0  0  0  0  0  0  0  0  0  0
   -3.2836    1.3058    1.4608 H   0  0  0  0  0  0  0  0  0  0  0  0
   -1.9295    2.3613    0.9096 H   0  0  0  0  0  0  0  0  0  0  0  0
    4.2762    4.3197    0.8041 H   0  0  0  0  0  0  0  0  0  0  0  0
    1.8865    3.7807    0.6288 H   0  0  0  0  0  0  0  0  0  0  0  0
    1.2286    1.5228   -0.0168 H   0  0  0  0  0  0  0  0  0  0  0  0
    6.3222    0.3181   -0.3092 H   0  0  0  0  0  0  0  0  0  0  0  0
    5.0822   -1.6592   -0.8782 H   0  0  0  0  0  0  0  0  0  0  0  0
   -5.6204   -1.2802    0.9742 H   0  0  0  0  0  0  0  0  0  0  0  0
   -5.5293   -2.0861   -0.6446 H   0  0  0  0  0  0  0  0  0  0  0  0
  2  1  1  0      
  1 22  2  0      
  2  3  1  0      
  4  2  2  0      
  6  3  1  0      
  3 29  1  0      
  5  4  1  0      
  4 30  1  0      
  5 28  2  0      
  5 31  1  0      
  6  8  1  0      
  6 10  1  0      
  6 11  1  0      
  7  8  2  0      
  8  9  1  0      
  9 23  1  0      
  9 32  1  0      
 10 33  1  0      
 10 34  1  0      
 10 35  1  0      
 11 12  1  0      
 11 36  1  0      
 11 37  1  0      
 12 38  1  0      
 12 39  1  0      
 12 40  1  0      
 13 14  1  0      
 15 13  2  0      
 13 41  1  0      
 14 17  2  0      
 16 15  1  0      
 15 42  1  0      
 18 16  2  0      
 16 43  1  0      
 18 17  1  0      
 19 17  1  0      
 21 18  1  0      
 19 20  1  0      
 19 44  1  0      
 20 21  2  0      
 20 45  1  0      
 21 22  1  0      
 22 28  1  0      
 23 27  1  0      
 23 46  1  0      
 23 47  1  0      
 24 27  1  0      
 25 27  1  0      
 26 27  1  0      
M  END
