
  Chem3D Core 15.008171512283D

 56 58  0  0  0  0  0  0  0  0999 V2000
    6.2914    3.7417   -0.0059 C   0  0  0  0  0  0  0  0  0  0  0  0
    5.3218    2.7808    0.5202 N   0  0  0  0  0  0  0  0  0  0  0  0
    5.4393    2.2280    1.7659 C   0  0  0  0  0  0  0  0  0  0  0  0
    4.4631    1.3445    2.1305 C   0  0  0  0  0  0  0  0  0  0  0  0
    4.5027    0.7531    3.3399 C   0  0  0  0  0  0  0  0  0  0  0  0
    3.5577   -0.1192    3.7250 C   0  0  0  0  0  0  0  0  0  0  0  0
    2.5263   -0.4458    2.9244 C   0  0  0  0  0  0  0  0  0  0  0  0
    2.4868    0.1450    1.7172 C   0  0  0  0  0  0  0  0  0  0  0  0
    3.4310    1.0187    1.3286 C   0  0  0  0  0  0  0  0  0  0  0  0
    1.6943   -1.2851    3.4002 N   0  0  0  0  0  0  0  0  0  0  0  0
    0.6224   -1.8479    3.0020 C   0  0  0  0  0  0  0  0  0  0  0  0
    0.0889   -2.6537    3.8277 N   0  0  0  0  0  0  0  0  0  0  0  0
   -0.9767   -3.2593    3.5222 C   0  0  0  0  0  0  0  0  0  0  0  0
   -1.5917   -3.1005    2.3399 C   0  0  0  0  0  0  0  0  0  0  0  0
   -0.9863   -2.2314    1.5075 C   0  0  0  0  0  0  0  0  0  0  0  0
    0.0809   -1.6525    1.8711 N   0  0  0  0  0  0  0  0  0  0  0  0
   -1.5310   -2.0331    0.3768 N   0  0  0  0  0  0  0  0  0  0  0  0
   -1.0138   -1.1098   -0.6508 C   0  0  0  0  0  0  0  0  0  0  0  0
   -2.0865   -0.9667   -1.7179 C   0  0  0  0  0  0  0  0  0  0  0  0
   -1.6756   -1.4824   -2.8045 N   0  0  0  0  0  0  0  0  0  0  0  0
   -2.4505   -1.5298   -3.7977 C   0  0  0  0  0  0  0  0  0  0  0  0
   -3.6931   -1.0513   -3.6931 C   0  0  0  0  0  0  0  0  0  0  0  0
   -4.0965   -0.5423   -2.6118 N   0  0  0  0  0  0  0  0  0  0  0  0
   -3.3426   -0.4575   -1.5870 C   0  0  0  0  0  0  0  0  0  0  0  0
   -3.8956    0.1107   -0.5773 N   0  0  0  0  0  0  0  0  0  0  0  0
   -5.5418   -0.0535   -0.2168 S   0  0  0  0  0  0  0  0  0  0  0  0
   -5.8204   -0.3521    1.1873 O   0  0  0  0  0  0  0  0  0  0  0  0
   -6.4991    0.7150   -1.0072 O   0  0  0  0  0  0  0  0  0  0  0  0
   -6.2743   -1.6670   -0.7382 C   0  0  0  0  0  0  0  0  0  0  0  0
   -3.0659    0.6102    0.5467 C   0  0  0  0  0  0  0  0  0  0  0  0
   -2.8797   -3.8191    1.9948 C   0  0  0  0  0  0  0  0  0  0  0  0
   -2.6726   -4.6534    0.9874 F   0  0  0  0  0  0  0  0  0  0  0  0
   -3.3804   -4.5183    3.0001 F   0  0  0  0  0  0  0  0  0  0  0  0
   -3.8060   -2.9615    1.5937 F   0  0  0  0  0  0  0  0  0  0  0  0
    6.3716    2.5307    2.4748 O   0  0  0  0  0  0  0  0  0  0  0  0
    5.9812    4.0452   -1.0309 H   0  0  0  0  0  0  0  0  0  0  0  0
    6.3277    4.6534    0.6324 H   0  0  0  0  0  0  0  0  0  0  0  0
    7.3044    3.2837   -0.0689 H   0  0  0  0  0  0  0  0  0  0  0  0
    4.5344    2.5190   -0.0681 H   0  0  0  0  0  0  0  0  0  0  0  0
    5.3110    0.9604    4.0616 H   0  0  0  0  0  0  0  0  0  0  0  0
    3.6530   -0.5669    4.7306 H   0  0  0  0  0  0  0  0  0  0  0  0
    1.6836   -0.0587    0.9944 H   0  0  0  0  0  0  0  0  0  0  0  0
    3.3059    1.4457    0.3211 H   0  0  0  0  0  0  0  0  0  0  0  0
    1.9582   -1.5953    4.3713 H   0  0  0  0  0  0  0  0  0  0  0  0
   -1.3801   -3.9369    4.2918 H   0  0  0  0  0  0  0  0  0  0  0  0
   -2.4153   -2.5544    0.1554 H   0  0  0  0  0  0  0  0  0  0  0  0
   -0.6827   -0.1345   -0.2414 H   0  0  0  0  0  0  0  0  0  0  0  0
   -0.0809   -1.5668   -1.0590 H   0  0  0  0  0  0  0  0  0  0  0  0
   -2.0771   -1.9811   -4.7306 H   0  0  0  0  0  0  0  0  0  0  0  0
   -4.3967   -1.0860   -4.5404 H   0  0  0  0  0  0  0  0  0  0  0  0
   -6.3291   -1.7399   -1.8472 H   0  0  0  0  0  0  0  0  0  0  0  0
   -5.6364   -2.5022   -0.3703 H   0  0  0  0  0  0  0  0  0  0  0  0
   -7.3044   -1.7903   -0.3325 H   0  0  0  0  0  0  0  0  0  0  0  0
   -2.1881    1.1879    0.1866 H   0  0  0  0  0  0  0  0  0  0  0  0
   -3.6261    1.3746    1.1325 H   0  0  0  0  0  0  0  0  0  0  0  0
   -2.7969   -0.1867    1.2717 H   0  0  0  0  0  0  0  0  0  0  0  0
  1  2  1  0      
  1 36  1  0      
  1 37  1  0      
  1 38  1  0      
  2  3  1  0      
  2 39  1  0      
  3  4  1  0      
  3 35  2  0      
  4  5  1  0      
  4  9  2  0      
  5  6  2  0      
  5 40  1  0      
  6  7  1  0      
  6 41  1  0      
  7  8  2  0      
  7 10  1  0      
  8  9  1  0      
  8 42  1  0      
  9 43  1  0      
 10 11  1  0      
 10 44  1  0      
 12 11  2  0      
 11 16  1  0      
 13 12  1  0      
 14 13  2  0      
 13 45  1  0      
 15 14  1  0      
 14 31  1  0      
 15 16  2  0      
 15 17  1  0      
 17 18  1  0      
 17 46  1  0      
 18 19  1  0      
 18 47  1  0      
 18 48  1  0      
 19 20  2  0      
 19 24  1  0      
 20 21  1  0      
 21 22  2  0      
 21 49  1  0      
 22 23  1  0      
 22 50  1  0      
 23 24  2  0      
 24 25  1  0      
 25 26  1  0      
 25 30  1  0      
 26 27  2  0      
 26 28  2  0      
 26 29  1  0      
 29 51  1  0      
 29 52  1  0      
 29 53  1  0      
 30 54  1  0      
 30 55  1  0      
 30 56  1  0      
 31 32  1  0      
 31 33  1  0      
 31 34  1  0      
M  END
