
  Chem3D Core 15.008171512513D

 42 43  0  0  0  0  0  0  0  0999 V2000
    0.4370    2.8071    0.0673 O   0  0  0  0  0  0  0  0  0  0  0  0
    0.5224    1.6078    0.2048 C   0  0  0  0  0  0  0  0  0  0  0  0
   -0.2163    0.7557   -0.5735 N   0  0  0  0  0  0  0  0  0  0  0  0
   -1.1243    1.2103   -1.6321 C   0  0  0  0  0  0  0  0  0  0  0  0
   -1.6994    2.0840   -1.2370 H   0  0  0  0  0  0  0  0  0  0  0  0
   -2.1261    0.1084   -1.9328 C   0  0  0  0  0  0  0  0  0  0  0  0
   -1.7951   -1.1953   -1.8695 C   0  0  0  0  0  0  0  0  0  0  0  0
   -2.6941   -2.1544   -2.1405 C   0  0  0  0  0  0  0  0  0  0  0  0
   -3.9474   -1.8245   -2.4852 C   0  0  0  0  0  0  0  0  0  0  0  0
   -4.2921   -0.5308   -2.5598 C   0  0  0  0  0  0  0  0  0  0  0  0
   -3.3866    0.4214   -2.2871 C   0  0  0  0  0  0  0  0  0  0  0  0
   -0.3725    1.6437   -2.9049 C   0  0  0  0  0  0  0  0  0  0  0  0
    0.5049    0.5466   -3.5285 C   0  0  0  0  0  0  0  0  0  0  0  0
    1.3042    1.0719   -4.7291 C   0  0  0  0  0  0  0  0  0  0  0  0
    1.3295    0.9771    1.1118 C   0  0  0  0  0  0  0  0  0  0  0  0
    1.3142   -0.3431    1.1328 C   0  0  0  0  0  0  0  0  0  0  0  0
    1.2374   -1.4988    1.0796 N   0  0  0  0  0  0  0  0  0  0  0  0
    2.1096    1.6969    1.9478 C   0  0  0  0  0  0  0  0  0  0  0  0
    2.9609    1.2481    2.8962 C   0  0  0  0  0  0  0  0  0  0  0  0
    3.1101    0.0052    3.0958 N   0  0  0  0  0  0  0  0  0  0  0  0
    3.8999   -0.4450    3.9768 C   0  0  0  0  0  0  0  0  0  0  0  0
    4.0554   -2.3206    4.2010 Br  0  0  0  0  0  0  0  0  0  0  0  0
    4.6314    0.3650    4.7578 C   0  0  0  0  0  0  0  0  0  0  0  0
    4.5082    1.6875    4.5843 C   0  0  0  0  0  0  0  0  0  0  0  0
    3.6620    2.1268    3.6415 C   0  0  0  0  0  0  0  0  0  0  0  0
   -0.1169   -0.2500   -0.4471 H   0  0  0  0  0  0  0  0  0  0  0  0
   -0.7728   -1.5071   -1.6023 H   0  0  0  0  0  0  0  0  0  0  0  0
   -2.4020   -3.2167   -2.0849 H   0  0  0  0  0  0  0  0  0  0  0  0
   -4.6871   -2.6106   -2.7106 H   0  0  0  0  0  0  0  0  0  0  0  0
   -5.3193   -0.2507   -2.8477 H   0  0  0  0  0  0  0  0  0  0  0  0
   -3.6917    1.4787   -2.3599 H   0  0  0  0  0  0  0  0  0  0  0  0
   -1.1097    1.9994   -3.6638 H   0  0  0  0  0  0  0  0  0  0  0  0
    0.2757    2.5184   -2.6594 H   0  0  0  0  0  0  0  0  0  0  0  0
    1.2154    0.1503   -2.7645 H   0  0  0  0  0  0  0  0  0  0  0  0
   -0.1319   -0.3031   -3.8704 H   0  0  0  0  0  0  0  0  0  0  0  0
    1.9291    0.2652   -5.1772 H   0  0  0  0  0  0  0  0  0  0  0  0
    0.6265    1.4571   -5.5251 H   0  0  0  0  0  0  0  0  0  0  0  0
    1.9865    1.8993   -4.4280 H   0  0  0  0  0  0  0  0  0  0  0  0
    2.0576    2.7967    1.8588 H   0  0  0  0  0  0  0  0  0  0  0  0
    5.3193   -0.0261    5.5251 H   0  0  0  0  0  0  0  0  0  0  0  0
    5.0876    2.3941    5.2009 H   0  0  0  0  0  0  0  0  0  0  0  0
    3.5626    3.2167    3.5011 H   0  0  0  0  0  0  0  0  0  0  0  0
  1  2  2  0      
  2  3  1  0      
  2 15  1  0      
  3  4  1  0      
  3 26  1  0      
  4  5  1  0      
  4  6  1  0      
  4 12  1  0      
  6  7  1  0      
  6 11  2  0      
  7  8  2  0      
  7 27  1  0      
  8  9  1  0      
  8 28  1  0      
  9 10  2  0      
  9 29  1  0      
 10 11  1  0      
 10 30  1  0      
 11 31  1  0      
 12 13  1  0      
 12 32  1  0      
 12 33  1  0      
 13 14  1  0      
 13 34  1  0      
 13 35  1  0      
 14 36  1  0      
 14 37  1  0      
 14 38  1  0      
 15 16  1  0      
 15 18  2  0      
 16 17  3  0      
 18 19  1  0      
 18 39  1  0      
 19 20  2  0      
 25 19  1  0      
 20 21  1  0      
 21 22  1  0      
 23 21  2  0      
 23 24  1  0      
 23 40  1  0      
 24 25  2  0      
 24 41  1  0      
 25 42  1  0      
M  END
