
  Chem3D Core 15.003291616493D

  0  0  0     0  0              0 V3000
M  V30 BEGIN CTAB
M  V30 COUNTS 51 55 0 0 0
M  V30 BEGIN ATOM
M  V30 1 O 0.539952 -0.006416 1.858637 0
M  V30 2 O 2.840075 1.482394 2.243418 0
M  V30 3 O 2.176025 -3.232256 0.170207 0
M  V30 4 O -3.661463 -1.160900 -0.066867 0
M  V30 5 O 4.972128 -0.029599 -2.598922 0
M  V30 6 O 5.177255 2.652345 -1.591818 0
M  V30 7 C 2.510637 -1.269805 1.425340 0
M  V30 8 C 1.647358 -0.587106 2.473040 0
M  V30 9 C 3.227448 -0.220220 0.594968 0
M  V30 10 C 1.642291 -2.242417 0.628642 0
M  V30 11 C 0.320704 -1.938083 0.483102 0
M  V30 12 C -0.205342 -0.832827 1.056518 0
M  V30 13 C 3.332201 1.045516 1.040266 0
M  V30 14 C 2.460466 0.492765 3.161688 0
M  V30 15 C -1.520973 -0.566993 0.864074 0
M  V30 16 C 3.773009 -0.531957 -0.592496 0
M  V30 17 C -2.323379 -1.378657 0.141157 0
M  V30 18 C -0.460736 -2.739448 -0.260787 0
M  V30 19 C 4.002519 1.903112 0.253191 0
M  V30 20 C 4.420918 0.338060 -1.394256 0
M  V30 21 C 4.561113 1.606839 -0.936594 0
M  V30 22 C -1.757655 -2.456564 -0.426337 0
M  V30 23 C -2.080599 0.520662 1.427976 0
M  V30 24 C -4.129682 0.147948 0.089992 0
M  V30 25 C -3.339776 0.875778 1.144526 0
M  V30 26 C -5.608341 0.075890 0.481488 0
M  V30 27 C -3.970274 0.887330 -1.244156 0
M  V30 28 C 4.976629 -1.382103 -2.992530 0
M  V30 29 C 5.363781 2.621782 -2.986715 0
M  V30 30 H 3.298291 -1.864513 1.951285 0
M  V30 31 H 1.282743 -1.328725 3.225611 0
M  V30 32 H 1.868243 0.986846 3.966293 0
M  V30 33 H 3.378216 0.063497 3.626717 0
M  V30 34 H 3.671864 -1.577787 -0.910901 0
M  V30 35 H -0.076125 -3.645069 -0.758591 0
M  V30 36 H 4.101400 2.940533 0.620299 0
M  V30 37 H -2.381209 -3.130870 -1.038399 0
M  V30 38 H -1.528373 1.178012 2.119479 0
M  V30 39 H -3.781476 1.777941 1.598896 0
M  V30 40 H -5.739658 -0.445595 1.457272 0
M  V30 41 H -6.056908 1.090814 0.576769 0
M  V30 42 H -6.199013 -0.481859 -0.280654 0
M  V30 43 H -4.537470 0.380161 -2.057695 0
M  V30 44 H -4.347760 1.932886 -1.173627 0
M  V30 45 H -2.903377 0.936651 -1.560898 0
M  V30 46 H 5.512160 -1.447515 -3.966293 0
M  V30 47 H 5.531070 -2.001005 -2.252223 0
M  V30 48 H 3.936920 -1.745479 -3.151654 0
M  V30 49 H 5.662096 3.645069 -3.308287 0
M  V30 50 H 6.199013 1.940509 -3.258503 0
M  V30 51 H 4.411688 2.364311 -3.501531 0
M  V30 END ATOM
M  V30 BEGIN BOND
M  V30 1 1 8 1
M  V30 2 1 1 12
M  V30 3 1 13 2
M  V30 4 1 2 14
M  V30 5 2 3 10
M  V30 6 1 17 4
M  V30 7 1 4 24
M  V30 8 1 5 20
M  V30 9 1 5 28
M  V30 10 1 6 21
M  V30 11 1 6 29
M  V30 12 1 8 7
M  V30 13 1 7 9
M  V30 14 1 10 7
M  V30 15 1 7 30
M  V30 16 1 14 8
M  V30 17 1 8 31
M  V30 18 1 13 9
M  V30 19 2 9 16
M  V30 20 1 11 10
M  V30 21 1 12 11
M  V30 22 2 11 18
M  V30 23 2 12 15
M  V30 24 2 19 13
M  V30 25 1 14 32
M  V30 26 1 14 33
M  V30 27 1 17 15
M  V30 28 1 23 15
M  V30 29 1 16 20
M  V30 30 1 16 34
M  V30 31 2 22 17
M  V30 32 1 18 22
M  V30 33 1 18 35
M  V30 34 1 21 19
M  V30 35 1 19 36
M  V30 36 2 21 20
M  V30 37 1 22 37
M  V30 38 2 25 23
M  V30 39 1 23 38
M  V30 40 1 24 25
M  V30 41 1 24 26
M  V30 42 1 24 27
M  V30 43 1 25 39
M  V30 44 1 26 40
M  V30 45 1 26 41
M  V30 46 1 26 42
M  V30 47 1 27 43
M  V30 48 1 27 44
M  V30 49 1 27 45
M  V30 50 1 28 46
M  V30 51 1 28 47
M  V30 52 1 28 48
M  V30 53 1 29 49
M  V30 54 1 29 50
M  V30 55 1 29 51
M  V30 END BOND
M  V30 END CTAB
M  END
