
  Chem3D Core 15.001061616463D

 58 59  0  0  0  0  0  0  0  0999 V2000
    0.7706   -1.0124    0.8456 O   0  0  0  0  0  0  0  0  0  0  0  0
    2.8058   -4.3592   -0.0892 O   0  0  0  0  0  0  0  0  0  0  0  0
    3.1837   -1.8784    3.5254 O   0  0  0  0  0  0  0  0  0  0  0  0
   -0.1277   -1.6392   -4.1027 O   0  0  0  0  0  0  0  0  0  0  0  0
    0.5940   -0.2194   -1.7688 O   0  0  0  0  0  0  0  0  0  0  0  0
    0.5865    1.5886    0.7005 N   0  0  0  0  0  0  0  0  0  0  0  0
    2.9951   -0.8976    1.0966 N   0  0  0  0  0  0  0  0  0  0  0  0
    1.9767   -2.4225   -0.8912 N   0  0  0  0  0  0  0  0  0  0  0  0
    1.7154    1.0419    0.8921 C   0  0  0  0  0  0  0  0  0  0  0  0
    3.2193   -2.3538    1.1982 C   0  0  0  0  0  0  0  0  0  0  0  0
    1.7584   -0.3221    0.9575 C   0  0  0  0  0  0  0  0  0  0  0  0
    0.3889    2.8392    0.5962 C   0  0  0  0  0  0  0  0  0  0  0  0
    2.6685   -3.1668    0.0202 C   0  0  0  0  0  0  0  0  0  0  0  0
   -0.8784    3.2748    0.3674 C   0  0  0  0  0  0  0  0  0  0  0  0
    2.8156    1.8047    1.0156 C   0  0  0  0  0  0  0  0  0  0  0  0
    2.7881   -2.8506    2.5839 C   0  0  0  0  0  0  0  0  0  0  0  0
    1.4621    3.6473    0.7156 C   0  0  0  0  0  0  0  0  0  0  0  0
    1.0896   -2.9746   -1.9220 C   0  0  0  0  0  0  0  0  0  0  0  0
    2.6816    3.1338    0.9290 C   0  0  0  0  0  0  0  0  0  0  0  0
   -1.2082    4.5792    0.2446 C   0  0  0  0  0  0  0  0  0  0  0  0
   -1.9063    2.4038    0.2424 C   0  0  0  0  0  0  0  0  0  0  0  0
   -0.0327   -3.8473   -1.3329 C   0  0  0  0  0  0  0  0  0  0  0  0
   -2.4661    4.9908    0.0159 C   0  0  0  0  0  0  0  0  0  0  0  0
   -3.1693    2.7981    0.0133 C   0  0  0  0  0  0  0  0  0  0  0  0
    3.3832   -4.1901    3.0087 C   0  0  0  0  0  0  0  0  0  0  0  0
   -3.4590    4.1002   -0.1017 C   0  0  0  0  0  0  0  0  0  0  0  0
   -1.1026   -4.3261   -2.3343 C   0  0  0  0  0  0  0  0  0  0  0  0
   -0.5016   -5.1571   -3.4798 C   0  0  0  0  0  0  0  0  0  0  0  0
   -2.1802   -5.1479   -1.6030 C   0  0  0  0  0  0  0  0  0  0  0  0
    0.4600   -1.6558   -2.5650 B   0  0  0  0  0  0  0  0  0  0  0  0
    2.8702   -2.1222    4.3985 H   0  0  0  0  0  0  0  0  0  0  0  0
   -0.3165   -0.7661   -4.3985 H   0  0  0  0  0  0  0  0  0  0  0  0
    0.2218   -0.2349   -0.8979 H   0  0  0  0  0  0  0  0  0  0  0  0
    3.7978   -0.2928    1.2492 H   0  0  0  0  0  0  0  0  0  0  0  0
    1.9842   -1.4115   -0.7604 H   0  0  0  0  0  0  0  0  0  0  0  0
    4.3280   -2.4808    1.1253 H   0  0  0  0  0  0  0  0  0  0  0  0
    3.8273    1.4064    1.1835 H   0  0  0  0  0  0  0  0  0  0  0  0
    1.6755   -2.9033    2.6382 H   0  0  0  0  0  0  0  0  0  0  0  0
    1.4121    4.7433    0.6443 H   0  0  0  0  0  0  0  0  0  0  0  0
    1.6971   -3.5130   -2.6828 H   0  0  0  0  0  0  0  0  0  0  0  0
    3.5614    3.7923    1.0247 H   0  0  0  0  0  0  0  0  0  0  0  0
   -0.4686    5.3896    0.3247 H   0  0  0  0  0  0  0  0  0  0  0  0
   -1.7690    1.3119    0.3189 H   0  0  0  0  0  0  0  0  0  0  0  0
    0.4084   -4.7496   -0.8503 H   0  0  0  0  0  0  0  0  0  0  0  0
   -0.5338   -3.2647   -0.5229 H   0  0  0  0  0  0  0  0  0  0  0  0
   -2.6899    6.0675   -0.0769 H   0  0  0  0  0  0  0  0  0  0  0  0
   -3.9759    2.0512   -0.0823 H   0  0  0  0  0  0  0  0  0  0  0  0
    2.9886   -5.0340    2.4014 H   0  0  0  0  0  0  0  0  0  0  0  0
    3.1293   -4.4160    4.0699 H   0  0  0  0  0  0  0  0  0  0  0  0
    4.4933   -4.1867    2.9219 H   0  0  0  0  0  0  0  0  0  0  0  0
   -4.4933    4.4320   -0.2900 H   0  0  0  0  0  0  0  0  0  0  0  0
   -1.6117   -3.4329   -2.7741 H   0  0  0  0  0  0  0  0  0  0  0  0
   -1.2975   -5.5394   -4.1588 H   0  0  0  0  0  0  0  0  0  0  0  0
    0.1922   -4.5566   -4.1089 H   0  0  0  0  0  0  0  0  0  0  0  0
    0.0609   -6.0340   -3.0866 H   0  0  0  0  0  0  0  0  0  0  0  0
   -2.9904   -5.4636   -2.2993 H   0  0  0  0  0  0  0  0  0  0  0  0
   -2.6571   -4.5569   -0.7879 H   0  0  0  0  0  0  0  0  0  0  0  0
   -1.7466   -6.0675   -1.1485 H   0  0  0  0  0  0  0  0  0  0  0  0
  1 11  2  0      
  2 13  2  0      
 16  3  1  0      
  3 31  1  0      
  4 30  1  0      
  4 32  1  0      
  5 30  1  0      
  5 33  1  0      
  9  6  2  0      
  6 12  1  0      
 10  7  1  0      
  7 11  1  0      
  7 34  1  0      
  8 13  1  0      
  8 18  1  0      
  8 35  1  0      
  9 11  1  0      
 15  9  1  0      
 10 13  1  0      
 10 16  1  0      
 10 36  1  0      
 12 14  1  0      
 17 12  2  0      
 14 20  1  0      
 14 21  2  0      
 19 15  2  0      
 15 37  1  0      
 16 25  1  0      
 16 38  1  0      
 17 19  1  0      
 17 39  1  0      
 18 22  1  0      
 18 30  1  0      
 18 40  1  0      
 19 41  1  0      
 20 23  2  0      
 20 42  1  0      
 24 21  1  0      
 21 43  1  0      
 22 27  1  0      
 22 44  1  0      
 22 45  1  0      
 23 26  1  0      
 23 46  1  0      
 26 24  2  0      
 24 47  1  0      
 25 48  1  0      
 25 49  1  0      
 25 50  1  0      
 26 51  1  0      
 27 28  1  0      
 27 29  1  0      
 27 52  1  0      
 28 53  1  0      
 28 54  1  0      
 28 55  1  0      
 29 56  1  0      
 29 57  1  0      
 29 58  1  0      
M  END
