
  Chem3D Core 15.003281610463D

 60 63  0  0  0  0  0  0  0  0999 V2000
   -2.7726    0.4831    0.2438 O   0  0  0  0  0  0  0  0  0  0  0  0
   -1.6559    0.3125    0.6830 C   0  0  0  0  0  0  0  0  0  0  0  0
   -1.4038   -0.7979    1.4575 N   0  0  0  0  0  0  0  0  0  0  0  0
   -0.2133   -1.0675    2.2485 C   0  0  0  0  0  0  0  0  0  0  0  0
    0.6412   -2.1090    1.5140 C   0  0  0  0  0  0  0  0  0  0  0  0
   -0.1525   -3.2226    0.8808 N   0  0  0  0  0  0  0  0  0  0  0  0
    0.5200   -4.2108    0.3915 C   0  0  0  0  0  0  0  0  0  0  0  0
    1.7834   -4.1307    0.5702 N   0  0  0  0  0  0  0  0  0  0  0  0
    2.6241   -4.9919    0.1947 C   0  0  0  0  0  0  0  0  0  0  0  0
    2.2753   -6.1048   -0.4493 C   0  0  0  0  0  0  0  0  0  0  0  0
    0.9678   -6.2445   -0.6850 C   0  0  0  0  0  0  0  0  0  0  0  0
    0.0721   -5.3144   -0.2857 C   0  0  0  0  0  0  0  0  0  0  0  0
   -1.1470   -5.5443   -0.5897 N   0  0  0  0  0  0  0  0  0  0  0  0
   -1.7532   -6.6944   -1.3177 C   0  0  0  0  0  0  0  0  0  0  0  0
   -1.9247   -7.9087   -0.3929 C   0  0  0  0  0  0  0  0  0  0  0  0
   -3.1266   -6.2373   -1.8420 C   0  0  0  0  0  0  0  0  0  0  0  0
   -1.6352   -3.1224    0.7845 C   0  0  0  0  0  0  0  0  0  0  0  0
   -2.2995   -1.9461    1.5274 C   0  0  0  0  0  0  0  0  0  0  0  0
   -0.7004    1.2359    0.3715 C   0  0  0  0  0  0  0  0  0  0  0  0
    0.5544    1.2219    0.5901 N   0  0  0  0  0  0  0  0  0  0  0  0
   -0.9624    2.3912   -0.2743 C   0  0  0  0  0  0  0  0  0  0  0  0
    0.2011    3.0405   -0.4063 C   0  0  0  0  0  0  0  0  0  0  0  0
    1.1313    2.2610    0.1507 C   0  0  0  0  0  0  0  0  0  0  0  0
    2.4172    2.6241    0.1670 C   0  0  0  0  0  0  0  0  0  0  0  0
    2.7395    3.8052   -0.3894 C   0  0  0  0  0  0  0  0  0  0  0  0
    1.8062    4.6111   -0.9394 C   0  0  0  0  0  0  0  0  0  0  0  0
    2.1869    5.7140   -1.4514 N   0  0  0  0  0  0  0  0  0  0  0  0
    1.4876    7.1672   -0.9386 S   0  0  0  0  0  0  0  0  0  0  0  0
    2.3572    8.3379   -1.0117 O   0  0  0  0  0  0  0  0  0  0  0  0
    0.3927    7.7783   -2.2939 C   0  0  0  0  0  0  0  0  0  0  0  0
    0.4043    7.1039    0.0367 O   0  0  0  0  0  0  0  0  0  0  0  0
    0.5168    4.2168   -0.9598 C   0  0  0  0  0  0  0  0  0  0  0  0
    0.3288   -0.1555    2.5698 H   0  0  0  0  0  0  0  0  0  0  0  0
   -0.5171   -1.5023    3.2308 H   0  0  0  0  0  0  0  0  0  0  0  0
    1.2015   -1.5765    0.7074 H   0  0  0  0  0  0  0  0  0  0  0  0
    1.3667   -2.4859    2.2761 H   0  0  0  0  0  0  0  0  0  0  0  0
    3.6839   -4.7898    0.4243 H   0  0  0  0  0  0  0  0  0  0  0  0
    3.0200   -6.8500   -0.7708 H   0  0  0  0  0  0  0  0  0  0  0  0
    0.6997   -7.1629   -1.2281 H   0  0  0  0  0  0  0  0  0  0  0  0
   -1.8572   -4.8336   -0.3259 H   0  0  0  0  0  0  0  0  0  0  0  0
   -1.1412   -6.9462   -2.2159 H   0  0  0  0  0  0  0  0  0  0  0  0
   -2.3965   -8.7597   -0.9351 H   0  0  0  0  0  0  0  0  0  0  0  0
   -0.9536   -8.2714    0.0109 H   0  0  0  0  0  0  0  0  0  0  0  0
   -2.5715   -7.6555    0.4777 H   0  0  0  0  0  0  0  0  0  0  0  0
   -3.6287   -7.0467   -2.4198 H   0  0  0  0  0  0  0  0  0  0  0  0
   -3.0247   -5.3556   -2.5159 H   0  0  0  0  0  0  0  0  0  0  0  0
   -3.8021   -5.9463   -1.0054 H   0  0  0  0  0  0  0  0  0  0  0  0
   -2.1110   -4.0311    1.2280 H   0  0  0  0  0  0  0  0  0  0  0  0
   -1.8989   -2.9787   -0.2932 H   0  0  0  0  0  0  0  0  0  0  0  0
   -2.4866   -2.2129    2.5944 H   0  0  0  0  0  0  0  0  0  0  0  0
   -3.3138   -1.7490    1.1138 H   0  0  0  0  0  0  0  0  0  0  0  0
    1.1089    0.4680    1.0499 H   0  0  0  0  0  0  0  0  0  0  0  0
   -1.9308    2.7639   -0.6326 H   0  0  0  0  0  0  0  0  0  0  0  0
    3.1816    1.9729    0.6198 H   0  0  0  0  0  0  0  0  0  0  0  0
    3.8021    4.1046   -0.3785 H   0  0  0  0  0  0  0  0  0  0  0  0
    3.2379    5.7723   -1.4212 H   0  0  0  0  0  0  0  0  0  0  0  0
   -0.0613    8.7597   -2.0265 H   0  0  0  0  0  0  0  0  0  0  0  0
   -0.4222    7.0448   -2.4867 H   0  0  0  0  0  0  0  0  0  0  0  0
    0.9836    7.8932   -3.2308 H   0  0  0  0  0  0  0  0  0  0  0  0
   -0.2774    4.8224   -1.4240 H   0  0  0  0  0  0  0  0  0  0  0  0
  1  2  2  0      
  2  3  1  0      
  2 19  1  0      
  3  4  1  0      
  3 18  1  0      
  4  5  1  0      
  4 33  1  0      
  4 34  1  0      
  5  6  1  0      
  5 35  1  0      
  5 36  1  0      
  6  7  1  0      
  6 17  1  0      
  7  8  2  0      
 12  7  1  0      
  8  9  1  0      
 10  9  2  0      
  9 37  1  0      
 10 11  1  0      
 10 38  1  0      
 11 12  2  0      
 11 39  1  0      
 12 13  1  0      
 13 14  1  0      
 13 40  1  0      
 14 15  1  0      
 14 16  1  0      
 14 41  1  0      
 15 42  1  0      
 15 43  1  0      
 15 44  1  0      
 16 45  1  0      
 16 46  1  0      
 16 47  1  0      
 17 18  1  0      
 17 48  1  0      
 17 49  1  0      
 18 50  1  0      
 18 51  1  0      
 20 19  1  0      
 19 21  2  0      
 23 20  1  0      
 20 52  1  0      
 21 22  1  0      
 21 53  1  0      
 23 22  2  0      
 22 32  1  0      
 24 23  1  0      
 25 24  2  0      
 24 54  1  0      
 26 25  1  0      
 25 55  1  0      
 26 27  1  0      
 26 32  2  0      
 27 28  1  0      
 27 56  1  0      
 28 29  2  0      
 28 30  1  0      
 28 31  2  0      
 30 57  1  0      
 30 58  1  0      
 30 59  1  0      
 32 60  1  0      
M  END
