
  Chem3D Core 15.003291610543D

 53 56  0  0  0  0  0  0  0  0999 V2000
    3.7117    3.3015    0.6066 O   0  0  0  0  0  0  0  0  0  0  0  0
    1.9344    0.1139    0.3446 C   0  0  0  0  0  0  0  0  0  0  0  0
    0.8691   -0.5864    1.1778 C   0  0  0  0  0  0  0  0  0  0  0  0
   -0.4997   -0.0103    0.8398 C   0  0  0  0  0  0  0  0  0  0  0  0
    1.9857    1.5886    0.7216 C   0  0  0  0  0  0  0  0  0  0  0  0
   -1.5261   -0.5179    1.8439 C   0  0  0  0  0  0  0  0  0  0  0  0
    3.2576    2.0954    0.0547 C   0  0  0  0  0  0  0  0  0  0  0  0
   -0.4404    1.4844    0.8992 C   0  0  0  0  0  0  0  0  0  0  0  0
    0.7806    2.3064    0.1283 C   0  0  0  0  0  0  0  0  0  0  0  0
    3.3097   -0.4135    0.7319 C   0  0  0  0  0  0  0  0  0  0  0  0
    0.8824   -2.0778    0.8693 C   0  0  0  0  0  0  0  0  0  0  0  0
   -1.5261   -2.0149    1.8439 C   0  0  0  0  0  0  0  0  0  0  0  0
    4.2401    0.7664    0.4835 C   0  0  0  0  0  0  0  0  0  0  0  0
    1.9713    1.8184    2.2271 C   0  0  0  0  0  0  0  0  0  0  0  0
   -0.1947   -2.6992    1.8567 C   0  0  0  0  0  0  0  0  0  0  0  0
   -2.9089   -0.0103    1.4570 C   0  0  0  0  0  0  0  0  0  0  0  0
    3.1729    2.4266   -1.3750 C   0  0  0  0  0  0  0  0  0  0  0  0
   -1.3743    2.1610    1.5757 C   0  0  0  0  0  0  0  0  0  0  0  0
   -2.6673   -2.7115    1.8439 C   0  0  0  0  0  0  0  0  0  0  0  0
   -3.9565   -0.6579    2.3530 C   0  0  0  0  0  0  0  0  0  0  0  0
    2.0247    3.3133    2.5137 C   0  0  0  0  0  0  0  0  0  0  0  0
   -3.9988   -2.0272    1.8439 C   0  0  0  0  0  0  0  0  0  0  0  0
    3.1031    2.6996   -2.5538 C   0  0  0  0  0  0  0  0  0  0  0  0
    1.6917   -0.0522   -0.7288 H   0  0  0  0  0  0  0  0  0  0  0  0
    1.0810   -0.4293    2.2591 H   0  0  0  0  0  0  0  0  0  0  0  0
   -0.7938   -0.3295   -0.1850 H   0  0  0  0  0  0  0  0  0  0  0  0
   -1.2657   -0.1469    2.8605 H   0  0  0  0  0  0  0  0  0  0  0  0
    4.4942    3.5392    0.1391 H   0  0  0  0  0  0  0  0  0  0  0  0
    0.7765    3.3896    0.3841 H   0  0  0  0  0  0  0  0  0  0  0  0
    0.7266    2.2991   -0.9834 H   0  0  0  0  0  0  0  0  0  0  0  0
    3.5936   -1.2815    0.0957 H   0  0  0  0  0  0  0  0  0  0  0  0
    3.3490   -0.7762    1.7835 H   0  0  0  0  0  0  0  0  0  0  0  0
    0.5962   -2.2622   -0.1904 H   0  0  0  0  0  0  0  0  0  0  0  0
    1.8907   -2.5287    1.0057 H   0  0  0  0  0  0  0  0  0  0  0  0
    4.9445    0.5293   -0.3450 H   0  0  0  0  0  0  0  0  0  0  0  0
    4.8432    0.9946    1.3907 H   0  0  0  0  0  0  0  0  0  0  0  0
    1.0380    1.3917    2.6581 H   0  0  0  0  0  0  0  0  0  0  0  0
    2.8545    1.3209    2.6867 H   0  0  0  0  0  0  0  0  0  0  0  0
    0.2123   -2.6447    2.8912 H   0  0  0  0  0  0  0  0  0  0  0  0
   -0.3743   -3.7412    1.5094 H   0  0  0  0  0  0  0  0  0  0  0  0
   -2.9463    1.0950    1.5821 H   0  0  0  0  0  0  0  0  0  0  0  0
   -3.1163   -0.2712    0.3951 H   0  0  0  0  0  0  0  0  0  0  0  0
   -1.3332    3.2593    1.6210 H   0  0  0  0  0  0  0  0  0  0  0  0
   -2.1838    1.6193    2.0870 H   0  0  0  0  0  0  0  0  0  0  0  0
   -2.6270   -3.8108    1.8439 H   0  0  0  0  0  0  0  0  0  0  0  0
   -4.9445   -0.1572    2.2439 H   0  0  0  0  0  0  0  0  0  0  0  0
   -3.7165   -0.5930    3.4378 H   0  0  0  0  0  0  0  0  0  0  0  0
    2.0142    3.4813    3.6139 H   0  0  0  0  0  0  0  0  0  0  0  0
    2.9580    3.7400    2.0827 H   0  0  0  0  0  0  0  0  0  0  0  0
    1.1415    3.8108    2.0542 H   0  0  0  0  0  0  0  0  0  0  0  0
   -4.3799   -2.0013    0.7986 H   0  0  0  0  0  0  0  0  0  0  0  0
   -4.6620   -2.6066    2.5245 H   0  0  0  0  0  0  0  0  0  0  0  0
    3.0403    2.9452   -3.6139 H   0  0  0  0  0  0  0  0  0  0  0  0
  7  1  1  0      
  1 28  1  0      
  2  3  1  0      
  2  5  1  0      
  2 10  1  0      
  2 24  1  0      
  3  4  1  0      
  3 11  1  0      
  3 25  1  0      
  4  6  1  0      
  4  8  1  0      
  4 26  1  0      
  5  7  1  0      
  5  9  1  0      
  5 14  1  0      
  6 12  1  0      
  6 16  1  0      
  6 27  1  0      
  7 13  1  0      
  7 17  1  0      
  8  9  1  0      
  8 18  2  0      
  9 29  1  0      
  9 30  1  0      
 10 13  1  0      
 10 31  1  0      
 10 32  1  0      
 11 15  1  0      
 11 33  1  0      
 11 34  1  0      
 12 15  1  0      
 12 19  2  0      
 13 35  1  0      
 13 36  1  0      
 14 21  1  0      
 14 37  1  0      
 14 38  1  0      
 15 39  1  0      
 15 40  1  0      
 16 20  1  0      
 16 41  1  0      
 16 42  1  0      
 17 23  3  0      
 18 43  1  0      
 18 44  1  0      
 19 22  1  0      
 19 45  1  0      
 20 22  1  0      
 20 46  1  0      
 20 47  1  0      
 21 48  1  0      
 21 49  1  0      
 21 50  1  0      
 22 51  1  0      
 22 52  1  0      
 23 53  1  0      
M  END
