
  Chem3D Core 14.008171513503D

 57 60  0  0  0  0  0  0  0  0999 V2000
    0.8108    1.0403    0.7127 C   0  0  0  0  0  0  0  0  0  0  0  0
   -1.7057   -0.4919   -0.0407 C   0  0  0  0  0  0  0  0  0  0  0  0
   -3.0398   -1.2264    0.2068 C   0  0  0  0  0  0  0  0  0  0  0  0
    0.7827   -0.4529    0.3240 C   0  0  0  0  0  0  0  0  0  0  0  0
   -0.5288   -1.1851    0.6596 C   0  0  0  0  0  0  0  0  0  0  0  0
    2.2377    1.4292    0.2366 C   0  0  0  0  0  0  0  0  0  0  0  0
   -2.8357   -2.6689   -0.2227 C   0  0  0  0  0  0  0  0  0  0  0  0
   -1.7153    1.0078    0.2414 C   0  0  0  0  0  0  0  0  0  0  0  0
   -0.3707    1.7040   -0.0209 C   0  0  0  0  0  0  0  0  0  0  0  0
    3.0900    0.1979    0.6438 C   0  0  0  0  0  0  0  0  0  0  0  0
   -4.1425   -0.6410   -0.6481 C   0  0  0  0  0  0  0  0  0  0  0  0
    2.1051   -0.9740    0.8893 C   0  0  0  0  0  0  0  0  0  0  0  0
   -3.5488   -3.2452   -1.2034 C   0  0  0  0  0  0  0  0  0  0  0  0
    2.7673    2.7733    0.7676 C   0  0  0  0  0  0  0  0  0  0  0  0
   -0.4195   -2.6735    0.2721 C   0  0  0  0  0  0  0  0  0  0  0  0
   -4.7926   -1.3195   -1.6028 C   0  0  0  0  0  0  0  0  0  0  0  0
   -4.5239   -2.6147   -1.9078 C   0  0  0  0  0  0  0  0  0  0  0  0
   -1.7398   -3.4173    0.4961 C   0  0  0  0  0  0  0  0  0  0  0  0
   -1.4899   -0.5964   -1.3579 F   0  0  0  0  0  0  0  0  0  0  0  0
    2.0186    3.6251    1.1922 O   0  0  0  0  0  0  0  0  0  0  0  0
   -5.1385   -3.1907   -2.7827 O   0  0  0  0  0  0  0  0  0  0  0  0
    2.2552    1.5566   -1.1712 O   0  0  0  0  0  0  0  0  0  0  0  0
    0.6970    1.2443    2.2466 C   0  0  0  0  0  0  0  0  0  0  0  0
   -2.1299    1.2757    1.5571 O   0  0  0  0  0  0  0  0  0  0  0  0
   -3.5815   -1.2315    1.6525 C   0  0  0  0  0  0  0  0  0  0  0  0
    4.1718   -0.2230   -0.3659 C   0  0  0  0  0  0  0  0  0  0  0  0
    4.2695    3.0312    0.6629 C   0  0  0  0  0  0  0  0  0  0  0  0
    4.6479    4.3340    1.0925 O   0  0  0  0  0  0  0  0  0  0  0  0
   -0.6897   -1.1568    1.7608 H   0  0  0  0  0  0  0  0  0  0  0  0
    0.8857   -0.5377   -0.7866 H   0  0  0  0  0  0  0  0  0  0  0  0
   -2.4724    1.5099   -0.4067 H   0  0  0  0  0  0  0  0  0  0  0  0
   -0.1936    1.6826   -1.1214 H   0  0  0  0  0  0  0  0  0  0  0  0
   -0.4364    2.7824    0.2513 H   0  0  0  0  0  0  0  0  0  0  0  0
    3.6017    0.4083    1.6154 H   0  0  0  0  0  0  0  0  0  0  0  0
   -4.4387    0.4037   -0.4556 H   0  0  0  0  0  0  0  0  0  0  0  0
    1.9933   -1.1915    1.9766 H   0  0  0  0  0  0  0  0  0  0  0  0
    2.4275   -1.9192    0.3981 H   0  0  0  0  0  0  0  0  0  0  0  0
   -3.3309   -4.2961   -1.4609 H   0  0  0  0  0  0  0  0  0  0  0  0
    0.3827   -3.1724    0.8657 H   0  0  0  0  0  0  0  0  0  0  0  0
   -0.1324   -2.7628   -0.8026 H   0  0  0  0  0  0  0  0  0  0  0  0
   -5.5870   -0.7957   -2.1637 H   0  0  0  0  0  0  0  0  0  0  0  0
   -1.6448   -4.4660    0.1306 H   0  0  0  0  0  0  0  0  0  0  0  0
   -1.9742   -3.4858    1.5820 H   0  0  0  0  0  0  0  0  0  0  0  0
    1.7968    0.8458   -1.6168 H   0  0  0  0  0  0  0  0  0  0  0  0
   -0.0536    0.5887    2.7312 H   0  0  0  0  0  0  0  0  0  0  0  0
    1.6500    1.0467    2.7827 H   0  0  0  0  0  0  0  0  0  0  0  0
    0.3962    2.2802    2.5135 H   0  0  0  0  0  0  0  0  0  0  0  0
   -3.0230    1.6275    1.5607 H   0  0  0  0  0  0  0  0  0  0  0  0
   -4.4356   -1.9410    1.7491 H   0  0  0  0  0  0  0  0  0  0  0  0
   -2.8220   -1.5300    2.4062 H   0  0  0  0  0  0  0  0  0  0  0  0
   -3.9814   -0.2431    1.9662 H   0  0  0  0  0  0  0  0  0  0  0  0
    4.8848    0.6009   -0.5866 H   0  0  0  0  0  0  0  0  0  0  0  0
    4.7736   -1.0725    0.0313 H   0  0  0  0  0  0  0  0  0  0  0  0
    3.7262   -0.5567   -1.3302 H   0  0  0  0  0  0  0  0  0  0  0  0
    4.8382    2.3139    1.2925 H   0  0  0  0  0  0  0  0  0  0  0  0
    4.5872    2.9422   -0.3991 H   0  0  0  0  0  0  0  0  0  0  0  0
    5.5870    4.4660    0.9426 H   0  0  0  0  0  0  0  0  0  0  0  0
  4  1  1  0      
  6  1  1  0      
  1  9  1  0      
  1 23  1  0      
  2  3  1  0      
  5  2  1  0      
  8  2  1  0      
  2 19  1  0      
  7  3  1  0      
  3 11  1  0      
  3 25  1  0      
  5  4  1  0      
  4 12  1  0      
  4 30  1  0      
 15  5  1  0      
  5 29  1  0      
 10  6  1  0      
  6 14  1  0      
  6 22  1  0      
 13  7  2  0      
  7 18  1  0      
  9  8  1  0      
  8 24  1  0      
  8 31  1  0      
  9 32  1  0      
  9 33  1  0      
 12 10  1  0      
 10 26  1  0      
 10 34  1  0      
 11 16  2  0      
 11 35  1  0      
 12 36  1  0      
 12 37  1  0      
 17 13  1  0      
 13 38  1  0      
 14 20  2  0      
 14 27  1  0      
 18 15  1  0      
 15 39  1  0      
 15 40  1  0      
 16 17  1  0      
 16 41  1  0      
 17 21  2  0      
 18 42  1  0      
 18 43  1  0      
 22 44  1  0      
 23 45  1  0      
 23 46  1  0      
 23 47  1  0      
 24 48  1  0      
 25 49  1  0      
 25 50  1  0      
 25 51  1  0      
 26 52  1  0      
 26 53  1  0      
 26 54  1  0      
 27 28  1  0      
 27 55  1  0      
 27 56  1  0      
 28 57  1  0      
M  END
