
  Chem3D Core 15.001061617223D

118125  0  0  0  0  0  0  0  0999 V2000
    7.6188    3.1918   -1.2589 O   0  0  0  0  0  0  0  0  0  0  0  0
    0.0173    2.2873    0.8071 O   0  0  0  0  0  0  0  0  0  0  0  0
   11.7328    1.9306    0.8513 O   0  0  0  0  0  0  0  0  0  0  0  0
   -1.5094    0.5941    0.7992 O   0  0  0  0  0  0  0  0  0  0  0  0
   12.9551    0.0347    0.6169 O   0  0  0  0  0  0  0  0  0  0  0  0
   -3.9725    3.9328    0.9806 O   0  0  0  0  0  0  0  0  0  0  0  0
   -4.3837    1.2660    0.8273 O   0  0  0  0  0  0  0  0  0  0  0  0
   -6.4736    1.0509   -0.0756 O   0  0  0  0  0  0  0  0  0  0  0  0
   -8.3583   -0.8955    1.1161 O   0  0  0  0  0  0  0  0  0  0  0  0
   -6.6176   -1.7391    3.0041 O   0  0  0  0  0  0  0  0  0  0  0  0
  -10.4377   -1.4254    1.9047 O   0  0  0  0  0  0  0  0  0  0  0  0
  -10.8234   -2.4963   -2.0867 O   0  0  0  0  0  0  0  0  0  0  0  0
  -12.3844   -2.6708    0.0518 O   0  0  0  0  0  0  0  0  0  0  0  0
    6.8989    2.2194   -0.5424 C   0  0  0  0  0  0  0  0  0  0  0  0
    5.4477    2.2479   -1.0654 C   0  0  0  0  0  0  0  0  0  0  0  0
    4.5473    1.2085   -0.3569 C   0  0  0  0  0  0  0  0  0  0  0  0
    7.5798    0.8386   -0.7346 C   0  0  0  0  0  0  0  0  0  0  0  0
    3.0688    1.2170   -0.8480 C   0  0  0  0  0  0  0  0  0  0  0  0
    2.4974    2.6603   -0.7925 C   0  0  0  0  0  0  0  0  0  0  0  0
    5.2136   -0.1852   -0.3378 C   0  0  0  0  0  0  0  0  0  0  0  0
    6.5329   -0.2410   -1.1147 C   0  0  0  0  0  0  0  0  0  0  0  0
    8.2404    0.5063    0.6318 C   0  0  0  0  0  0  0  0  0  0  0  0
    4.8291    3.6598   -1.0418 C   0  0  0  0  0  0  0  0  0  0  0  0
    7.0350    2.5776    0.9487 C   0  0  0  0  0  0  0  0  0  0  0  0
    3.3842    3.6611   -1.5535 C   0  0  0  0  0  0  0  0  0  0  0  0
    7.4561    1.3021    1.6811 C   0  0  0  0  0  0  0  0  0  0  0  0
    2.1570    0.3080    0.0190 C   0  0  0  0  0  0  0  0  0  0  0  0
    2.2193    3.1578    0.6416 C   0  0  0  0  0  0  0  0  0  0  0  0
    8.6152    0.8032   -1.8863 C   0  0  0  0  0  0  0  0  0  0  0  0
    2.9668    0.6844   -2.3017 C   0  0  0  0  0  0  0  0  0  0  0  0
    1.8727    0.8264    1.4343 C   0  0  0  0  0  0  0  0  0  0  0  0
    1.2776    2.2350    1.4183 C   0  0  0  0  0  0  0  0  0  0  0  0
    9.7177    0.8061    0.7042 C   0  0  0  0  0  0  0  0  0  0  0  0
   10.3323    2.1710    0.8787 C   0  0  0  0  0  0  0  0  0  0  0  0
   10.7009   -0.0953    0.5947 C   0  0  0  0  0  0  0  0  0  0  0  0
   -1.0337    1.6975    1.5411 C   0  0  0  0  0  0  0  0  0  0  0  0
   11.8722    0.5792    0.6835 C   0  0  0  0  0  0  0  0  0  0  0  0
   -2.1179    2.7078    1.8703 C   0  0  0  0  0  0  0  0  0  0  0  0
   -2.8986    3.0964    0.6250 C   0  0  0  0  0  0  0  0  0  0  0  0
   -2.2903    0.8836   -0.3332 C   0  0  0  0  0  0  0  0  0  0  0  0
   -3.4443    1.8445   -0.0418 C   0  0  0  0  0  0  0  0  0  0  0  0
   -1.4584    1.3087   -1.5472 C   0  0  0  0  0  0  0  0  0  0  0  0
   -5.2782    0.3595    0.2169 C   0  0  0  0  0  0  0  0  0  0  0  0
   -5.4870   -0.8728    1.0781 C   0  0  0  0  0  0  0  0  0  0  0  0
   -6.3382   -0.5554    2.2963 C   0  0  0  0  0  0  0  0  0  0  0  0
   -7.3509    1.3033    0.9922 C   0  0  0  0  0  0  0  0  0  0  0  0
   -7.6472    0.0706    1.8459 C   0  0  0  0  0  0  0  0  0  0  0  0
   -6.9371    2.5182    1.8260 C   0  0  0  0  0  0  0  0  0  0  0  0
   -9.7379   -0.6338    0.9675 C   0  0  0  0  0  0  0  0  0  0  0  0
  -10.1891   -0.8492   -0.4661 C   0  0  0  0  0  0  0  0  0  0  0  0
  -10.2176   -2.3257   -0.8272 C   0  0  0  0  0  0  0  0  0  0  0  0
  -10.5673   -2.7932    1.6147 C   0  0  0  0  0  0  0  0  0  0  0  0
  -11.0418   -3.0723    0.1979 C   0  0  0  0  0  0  0  0  0  0  0  0
   -9.3186   -3.5955    1.9867 C   0  0  0  0  0  0  0  0  0  0  0  0
    5.5050    1.9769   -2.1479 H   0  0  0  0  0  0  0  0  0  0  0  0
    4.5108    1.5396    0.7080 H   0  0  0  0  0  0  0  0  0  0  0  0
    1.5045    2.6541   -1.3101 H   0  0  0  0  0  0  0  0  0  0  0  0
    7.4798    3.0741   -2.2012 H   0  0  0  0  0  0  0  0  0  0  0  0
   -4.6267    3.3884    1.4244 H   0  0  0  0  0  0  0  0  0  0  0  0
   -7.2485   -2.2451    2.4867 H   0  0  0  0  0  0  0  0  0  0  0  0
  -11.7679   -2.3478   -1.9764 H   0  0  0  0  0  0  0  0  0  0  0  0
  -12.9551   -3.1980    0.6138 H   0  0  0  0  0  0  0  0  0  0  0  0
    4.5501   -0.9677   -0.7668 H   0  0  0  0  0  0  0  0  0  0  0  0
    5.3796   -0.5294    0.7082 H   0  0  0  0  0  0  0  0  0  0  0  0
    6.2714   -0.1487   -2.1961 H   0  0  0  0  0  0  0  0  0  0  0  0
    6.9815   -1.2583   -1.0210 H   0  0  0  0  0  0  0  0  0  0  0  0
    8.1419   -0.5842    0.8508 H   0  0  0  0  0  0  0  0  0  0  0  0
    4.8556    4.0878   -0.0161 H   0  0  0  0  0  0  0  0  0  0  0  0
    5.4240    4.3576   -1.6779 H   0  0  0  0  0  0  0  0  0  0  0  0
    6.1196    3.0116    1.4042 H   0  0  0  0  0  0  0  0  0  0  0  0
    7.8276    3.3480    1.0910 H   0  0  0  0  0  0  0  0  0  0  0  0
    2.9564    4.6886   -1.4715 H   0  0  0  0  0  0  0  0  0  0  0  0
    3.3820    3.4245   -2.6428 H   0  0  0  0  0  0  0  0  0  0  0  0
    6.5447    0.7438    1.9921 H   0  0  0  0  0  0  0  0  0  0  0  0
    8.0308    1.4936    2.6144 H   0  0  0  0  0  0  0  0  0  0  0  0
    2.5675   -0.7241    0.0907 H   0  0  0  0  0  0  0  0  0  0  0  0
    1.1741    0.1888   -0.4913 H   0  0  0  0  0  0  0  0  0  0  0  0
    3.1667    3.2599    1.2169 H   0  0  0  0  0  0  0  0  0  0  0  0
    1.7735    4.1807    0.6043 H   0  0  0  0  0  0  0  0  0  0  0  0
    9.0650   -0.2107   -1.9875 H   0  0  0  0  0  0  0  0  0  0  0  0
    8.1463    1.0571   -2.8640 H   0  0  0  0  0  0  0  0  0  0  0  0
    9.4585    1.5136   -1.7558 H   0  0  0  0  0  0  0  0  0  0  0  0
    3.2125   -0.3966   -2.3785 H   0  0  0  0  0  0  0  0  0  0  0  0
    1.9347    0.7931   -2.7051 H   0  0  0  0  0  0  0  0  0  0  0  0
    3.6389    1.2093   -3.0117 H   0  0  0  0  0  0  0  0  0  0  0  0
    2.8177    0.8333    2.0259 H   0  0  0  0  0  0  0  0  0  0  0  0
    1.2002    0.1126    1.9640 H   0  0  0  0  0  0  0  0  0  0  0  0
    1.1819    2.6340    2.4581 H   0  0  0  0  0  0  0  0  0  0  0  0
   10.0708    2.8675    0.0532 H   0  0  0  0  0  0  0  0  0  0  0  0
   10.0698    2.6214    1.8614 H   0  0  0  0  0  0  0  0  0  0  0  0
   10.5560   -1.1732    0.4511 H   0  0  0  0  0  0  0  0  0  0  0  0
   -0.6492    1.2871    2.5035 H   0  0  0  0  0  0  0  0  0  0  0  0
   -1.6668    3.6129    2.3418 H   0  0  0  0  0  0  0  0  0  0  0  0
   -2.8136    2.2695    2.6251 H   0  0  0  0  0  0  0  0  0  0  0  0
   -2.2540    3.6805   -0.0709 H   0  0  0  0  0  0  0  0  0  0  0  0
   -2.7142   -0.1090   -0.6298 H   0  0  0  0  0  0  0  0  0  0  0  0
   -3.9656    2.1497   -0.9803 H   0  0  0  0  0  0  0  0  0  0  0  0
   -1.0151    2.3219   -1.4478 H   0  0  0  0  0  0  0  0  0  0  0  0
   -0.6338    0.5893   -1.7498 H   0  0  0  0  0  0  0  0  0  0  0  0
   -2.0905    1.3357   -2.4644 H   0  0  0  0  0  0  0  0  0  0  0  0
   -4.8698    0.0209   -0.7634 H   0  0  0  0  0  0  0  0  0  0  0  0
   -4.5012   -1.2897    1.3937 H   0  0  0  0  0  0  0  0  0  0  0  0
   -5.9854   -1.6664    0.4719 H   0  0  0  0  0  0  0  0  0  0  0  0
   -5.7829    0.1131    2.9931 H   0  0  0  0  0  0  0  0  0  0  0  0
   -8.2978    1.6295    0.4918 H   0  0  0  0  0  0  0  0  0  0  0  0
   -8.2356    0.3376    2.7559 H   0  0  0  0  0  0  0  0  0  0  0  0
   -7.7621    2.8261    2.5089 H   0  0  0  0  0  0  0  0  0  0  0  0
   -6.0557    2.3241    2.4735 H   0  0  0  0  0  0  0  0  0  0  0  0
   -6.7104    3.3940    1.1759 H   0  0  0  0  0  0  0  0  0  0  0  0
   -9.9587    0.4252    1.2371 H   0  0  0  0  0  0  0  0  0  0  0  0
   -9.5191   -0.2956   -1.1659 H   0  0  0  0  0  0  0  0  0  0  0  0
  -11.2088   -0.4143   -0.5957 H   0  0  0  0  0  0  0  0  0  0  0  0
   -9.1833   -2.7341   -0.8923 H   0  0  0  0  0  0  0  0  0  0  0  0
  -11.3674   -3.1593    2.3098 H   0  0  0  0  0  0  0  0  0  0  0  0
  -11.0248   -4.1676   -0.0101 H   0  0  0  0  0  0  0  0  0  0  0  0
   -9.5347   -4.6886    1.9812 H   0  0  0  0  0  0  0  0  0  0  0  0
   -8.4801   -3.4421    1.2737 H   0  0  0  0  0  0  0  0  0  0  0  0
   -8.9655   -3.3395    3.0117 H   0  0  0  0  0  0  0  0  0  0  0  0
 14  1  1  0      
  1 58  1  0      
 32  2  1  0      
 36  2  1  0      
 34  3  1  0      
  3 37  1  0      
 36  4  1  0      
 40  4  1  0      
  5 37  2  0      
 39  6  1  0      
  6 59  1  0      
 41  7  1  0      
 43  7  1  0      
 43  8  1  0      
 46  8  1  0      
 47  9  1  0      
 49  9  1  0      
 45 10  1  0      
 10 60  1  0      
 49 11  1  0      
 52 11  1  0      
 51 12  1  0      
 12 61  1  0      
 53 13  1  0      
 13 62  1  0      
 14 15  1  0      
 17 14  1  0      
 24 14  1  0      
 15 16  1  0      
 15 23  1  0      
 15 55  1  0      
 18 16  1  0      
 16 20  1  0      
 16 56  1  0      
 17 21  1  0      
 17 22  1  0      
 17 29  1  0      
 19 18  1  0      
 27 18  1  0      
 18 30  1  0      
 25 19  1  0      
 19 28  1  0      
 19 57  1  0      
 20 21  1  0      
 20 63  1  0      
 20 64  1  0      
 21 65  1  0      
 21 66  1  0      
 22 26  1  0      
 22 33  1  0      
 22 67  1  0      
 23 25  1  0      
 23 68  1  0      
 23 69  1  0      
 26 24  1  0      
 24 70  1  0      
 24 71  1  0      
 25 72  1  0      
 25 73  1  0      
 26 74  1  0      
 26 75  1  0      
 31 27  1  0      
 27 76  1  0      
 27 77  1  0      
 28 32  1  0      
 28 78  1  0      
 28 79  1  0      
 29 80  1  0      
 29 81  1  0      
 29 82  1  0      
 30 83  1  0      
 30 84  1  0      
 30 85  1  0      
 32 31  1  0      
 31 86  1  0      
 31 87  1  0      
 32 88  1  0      
 33 34  1  0      
 35 33  2  0      
 34 89  1  0      
 34 90  1  0      
 35 37  1  0      
 35 91  1  0      
 36 38  1  0      
 36 92  1  0      
 38 39  1  0      
 38 93  1  0      
 38 94  1  0      
 39 41  1  0      
 39 95  1  0      
 41 40  1  0      
 40 42  1  0      
 40 96  1  0      
 41 97  1  0      
 42 98  1  0      
 42 99  1  0      
 42100  1  0      
 43 44  1  0      
 43101  1  0      
 44 45  1  0      
 44102  1  0      
 44103  1  0      
 45 47  1  0      
 45104  1  0      
 47 46  1  0      
 46 48  1  0      
 46105  1  0      
 47106  1  0      
 48107  1  0      
 48108  1  0      
 48109  1  0      
 49 50  1  0      
 49110  1  0      
 50 51  1  0      
 50111  1  0      
 50112  1  0      
 51 53  1  0      
 51113  1  0      
 53 52  1  0      
 52 54  1  0      
 52114  1  0      
 53115  1  0      
 54116  1  0      
 54117  1  0      
 54118  1  0      
M  END
