
  Chem3D Core 15.003181615223D

 52 55  0  0  0  0  0  0  0  0999 V2000
    2.0376   -2.1787   -2.6145 F   0  0  0  0  0  0  0  0  0  0  0  0
    2.6653   -4.0937    1.5713 F   0  0  0  0  0  0  0  0  0  0  0  0
    2.1900    6.4388    2.1229 F   0  0  0  0  0  0  0  0  0  0  0  0
    4.9499   -2.6768   -0.0625 O   0  0  0  0  0  0  0  0  0  0  0  0
   -4.9008   -0.1334    1.0829 O   0  0  0  0  0  0  0  0  0  0  0  0
   -1.8591    1.8307   -1.0981 O   0  0  0  0  0  0  0  0  0  0  0  0
    2.8247   -1.9301   -0.0453 N   0  0  0  0  0  0  0  0  0  0  0  0
    0.7073   -1.2025    0.0750 N   0  0  0  0  0  0  0  0  0  0  0  0
    0.1573    0.7918    0.8079 N   0  0  0  0  0  0  0  0  0  0  0  0
   -1.3804   -0.7216    0.1845 N   0  0  0  0  0  0  0  0  0  0  0  0
    1.9343   -0.9487    0.2410 C   0  0  0  0  0  0  0  0  0  0  0  0
    2.3193    0.2554    0.7107 C   0  0  0  0  0  0  0  0  0  0  0  0
    1.3573    1.1865    0.9438 C   0  0  0  0  0  0  0  0  0  0  0  0
    2.3716   -3.1171   -0.5162 C   0  0  0  0  0  0  0  0  0  0  0  0
    4.1628   -1.7957    0.1897 C   0  0  0  0  0  0  0  0  0  0  0  0
    1.5254    2.4912    1.3033 C   0  0  0  0  0  0  0  0  0  0  0  0
   -0.1777   -0.3499    0.3718 C   0  0  0  0  0  0  0  0  0  0  0  0
    3.6359    0.3635    0.9806 C   0  0  0  0  0  0  0  0  0  0  0  0
    1.9842   -3.2260   -1.8035 C   0  0  0  0  0  0  0  0  0  0  0  0
    2.3096   -4.1908    0.2979 C   0  0  0  0  0  0  0  0  0  0  0  0
    4.5253   -0.6106    0.7354 C   0  0  0  0  0  0  0  0  0  0  0  0
    0.5911    3.2573    1.9308 C   0  0  0  0  0  0  0  0  0  0  0  0
    2.6506    3.1457    0.9361 C   0  0  0  0  0  0  0  0  0  0  0  0
    1.5414   -4.4046   -2.2690 C   0  0  0  0  0  0  0  0  0  0  0  0
    1.8632   -5.3635   -0.1789 C   0  0  0  0  0  0  0  0  0  0  0  0
    0.8404    4.5553    2.1998 C   0  0  0  0  0  0  0  0  0  0  0  0
    1.4820   -5.4732   -1.4603 C   0  0  0  0  0  0  0  0  0  0  0  0
    2.8959    4.4368    1.2015 C   0  0  0  0  0  0  0  0  0  0  0  0
    1.9820    5.1605    1.8538 C   0  0  0  0  0  0  0  0  0  0  0  0
   -2.5904    0.0979    0.4280 C   0  0  0  0  0  0  0  0  0  0  0  0
   -0.7298    2.7434    2.4789 C   0  0  0  0  0  0  0  0  0  0  0  0
   -2.9225    0.9485   -0.7986 C   0  0  0  0  0  0  0  0  0  0  0  0
   -3.7316   -0.8625    0.7703 C   0  0  0  0  0  0  0  0  0  0  0  0
   -5.5876   -0.7358    1.3778 H   0  0  0  0  0  0  0  0  0  0  0  0
   -2.1145    2.3949   -1.8316 H   0  0  0  0  0  0  0  0  0  0  0  0
   -1.5081   -1.6949   -0.1922 H   0  0  0  0  0  0  0  0  0  0  0  0
    4.0664    1.2385    1.4886 H   0  0  0  0  0  0  0  0  0  0  0  0
    5.5876   -0.4494    0.9913 H   0  0  0  0  0  0  0  0  0  0  0  0
    3.4091    2.6868    0.2843 H   0  0  0  0  0  0  0  0  0  0  0  0
    1.2245   -4.4946   -3.3212 H   0  0  0  0  0  0  0  0  0  0  0  0
    1.8057   -6.2402    0.4873 H   0  0  0  0  0  0  0  0  0  0  0  0
    0.0919    5.1672    2.7309 H   0  0  0  0  0  0  0  0  0  0  0  0
    1.1155   -6.4388   -1.8469 H   0  0  0  0  0  0  0  0  0  0  0  0
    3.8237    4.9188    0.8498 H   0  0  0  0  0  0  0  0  0  0  0  0
   -2.4183    0.7469    1.3169 H   0  0  0  0  0  0  0  0  0  0  0  0
   -0.6457    1.7261    2.9212 H   0  0  0  0  0  0  0  0  0  0  0  0
   -1.1136    3.3612    3.3212 H   0  0  0  0  0  0  0  0  0  0  0  0
   -1.5129    2.7784    1.6887 H   0  0  0  0  0  0  0  0  0  0  0  0
   -3.8235    1.5782   -0.6272 H   0  0  0  0  0  0  0  0  0  0  0  0
   -3.0907    0.3133   -1.6963 H   0  0  0  0  0  0  0  0  0  0  0  0
   -3.4832   -1.4823    1.6613 H   0  0  0  0  0  0  0  0  0  0  0  0
   -3.9712   -1.5367   -0.0817 H   0  0  0  0  0  0  0  0  0  0  0  0
  1 19  1  0      
  2 20  1  0      
  3 29  1  0      
  4 15  2  0      
  5 33  1  0      
  5 34  1  0      
  6 32  1  0      
  6 35  1  0      
  7 11  1  0      
  7 14  1  0      
  7 15  1  0      
  8 11  1  0      
 17  8  2  0      
 13  9  2  0      
  9 17  1  0      
 10 17  1  0      
 10 30  1  0      
 10 36  1  0      
 12 11  2  0      
 12 13  1  0      
 18 12  1  0      
 13 16  1  0      
 14 19  1  0      
 14 20  2  0      
 15 21  1  0      
 16 22  1  0      
 16 23  2  0      
 21 18  2  0      
 18 37  1  0      
 19 24  2  0      
 25 20  1  0      
 21 38  1  0      
 22 26  2  0      
 22 31  1  0      
 28 23  1  0      
 23 39  1  0      
 24 27  1  0      
 24 40  1  0      
 27 25  2  0      
 25 41  1  0      
 26 29  1  0      
 26 42  1  0      
 27 43  1  0      
 29 28  2  0      
 28 44  1  0      
 30 32  1  0      
 30 33  1  0      
 30 45  1  0      
 31 46  1  0      
 31 47  1  0      
 31 48  1  0      
 32 49  1  0      
 32 50  1  0      
 33 51  1  0      
 33 52  1  0      
M  END
