
  Chem3D Core 15.003181610023D

 49 52  0  0  0  0  0  0  0  0999 V2000
    6.0174    1.7042    1.8703 F   0  0  0  0  0  0  0  0  0  0  0  0
    7.8985   -2.1552    0.1805 F   0  0  0  0  0  0  0  0  0  0  0  0
   -5.5146    1.7544    0.5573 O   0  0  0  0  0  0  0  0  0  0  0  0
   -3.3809   -2.3692    0.4431 O   0  0  0  0  0  0  0  0  0  0  0  0
   -0.8757   -2.5411   -0.1527 O   0  0  0  0  0  0  0  0  0  0  0  0
    1.2203   -1.2173   -0.3410 O   0  0  0  0  0  0  0  0  0  0  0  0
    1.3819    2.7965   -0.1028 O   0  0  0  0  0  0  0  0  0  0  0  0
   -4.4594   -0.4252    0.3152 N   0  0  0  0  0  0  0  0  0  0  0  0
   -1.9688    0.7602    0.3474 N   0  0  0  0  0  0  0  0  0  0  0  0
    2.6330    0.9671    0.0571 N   0  0  0  0  0  0  0  0  0  0  0  0
   -4.4389    1.0021    0.0371 C   0  0  0  0  0  0  0  0  0  0  0  0
   -2.1007   -0.5048    0.2640 C   0  0  0  0  0  0  0  0  0  0  0  0
   -3.3003   -1.1639    0.3625 C   0  0  0  0  0  0  0  0  0  0  0  0
   -5.7769   -1.0657    0.2613 C   0  0  0  0  0  0  0  0  0  0  0  0
   -3.1705    1.5785    0.6497 C   0  0  0  0  0  0  0  0  0  0  0  0
   -0.9529   -1.1870    0.0300 C   0  0  0  0  0  0  0  0  0  0  0  0
    0.2453   -0.5383   -0.0931 C   0  0  0  0  0  0  0  0  0  0  0  0
    0.2860    0.8204    0.0360 C   0  0  0  0  0  0  0  0  0  0  0  0
   -0.8922    1.4290    0.2565 C   0  0  0  0  0  0  0  0  0  0  0  0
   -6.8938   -0.1520    0.7881 C   0  0  0  0  0  0  0  0  0  0  0  0
   -6.7625    1.2395    0.1914 C   0  0  0  0  0  0  0  0  0  0  0  0
    1.4194    1.5879   -0.0392 C   0  0  0  0  0  0  0  0  0  0  0  0
   -6.0808   -1.5623   -1.1642 C   0  0  0  0  0  0  0  0  0  0  0  0
    3.9047    1.6881   -0.0106 C   0  0  0  0  0  0  0  0  0  0  0  0
    5.0137    0.6620    0.0576 C   0  0  0  0  0  0  0  0  0  0  0  0
    5.9878    0.7209    0.9845 C   0  0  0  0  0  0  0  0  0  0  0  0
    5.0224   -0.3571   -0.8210 C   0  0  0  0  0  0  0  0  0  0  0  0
    6.9459   -0.2198    1.0185 C   0  0  0  0  0  0  0  0  0  0  0  0
    6.9503   -1.2327    0.1383 C   0  0  0  0  0  0  0  0  0  0  0  0
    5.9793   -1.2967   -0.7848 C   0  0  0  0  0  0  0  0  0  0  0  0
   -4.4087    1.1408   -1.0708 H   0  0  0  0  0  0  0  0  0  0  0  0
   -5.7901   -1.9583    0.9372 H   0  0  0  0  0  0  0  0  0  0  0  0
   -0.0206   -2.7965   -0.5343 H   0  0  0  0  0  0  0  0  0  0  0  0
    2.6970   -0.0366    0.1974 H   0  0  0  0  0  0  0  0  0  0  0  0
   -3.0904    2.6322    0.2879 H   0  0  0  0  0  0  0  0  0  0  0  0
   -3.2801    1.6233    1.7610 H   0  0  0  0  0  0  0  0  0  0  0  0
   -0.9717    2.5180    0.3884 H   0  0  0  0  0  0  0  0  0  0  0  0
   -7.8985   -0.5807    0.5642 H   0  0  0  0  0  0  0  0  0  0  0  0
   -6.8165   -0.0730    1.9001 H   0  0  0  0  0  0  0  0  0  0  0  0
   -7.5411    1.9183    0.6109 H   0  0  0  0  0  0  0  0  0  0  0  0
   -6.8661    1.2485   -0.9159 H   0  0  0  0  0  0  0  0  0  0  0  0
   -7.0718   -2.0678   -1.2161 H   0  0  0  0  0  0  0  0  0  0  0  0
   -5.3197   -2.2984   -1.5091 H   0  0  0  0  0  0  0  0  0  0  0  0
   -6.0856   -0.7280   -1.9001 H   0  0  0  0  0  0  0  0  0  0  0  0
    3.9848    2.2417   -0.9750 H   0  0  0  0  0  0  0  0  0  0  0  0
    3.9594    2.4214    0.8250 H   0  0  0  0  0  0  0  0  0  0  0  0
    4.2335   -0.4293   -1.5883 H   0  0  0  0  0  0  0  0  0  0  0  0
    7.7406   -0.1607    1.7807 H   0  0  0  0  0  0  0  0  0  0  0  0
    5.9688   -2.1234   -1.5144 H   0  0  0  0  0  0  0  0  0  0  0  0
  1 26  1  0      
  2 29  1  0      
  3 11  1  0      
  3 21  1  0      
  4 13  2  0      
  5 16  1  0      
  5 33  1  0      
  6 17  2  0      
  7 22  2  0      
  8 11  1  0      
  8 13  1  0      
  8 14  1  0      
  9 12  1  0      
  9 15  1  0      
  9 19  1  0      
 10 22  1  0      
 10 24  1  0      
 10 34  1  0      
 11 15  1  0      
 11 31  1  0      
 12 13  1  0      
 12 16  2  0      
 14 20  1  0      
 14 23  1  0      
 14 32  1  0      
 15 35  1  0      
 15 36  1  0      
 16 17  1  0      
 17 18  1  0      
 18 19  2  0      
 18 22  1  0      
 19 37  1  0      
 20 21  1  0      
 20 38  1  0      
 20 39  1  0      
 21 40  1  0      
 21 41  1  0      
 23 42  1  0      
 23 43  1  0      
 23 44  1  0      
 24 25  1  0      
 24 45  1  0      
 24 46  1  0      
 25 26  1  0      
 25 27  2  0      
 26 28  2  0      
 30 27  1  0      
 27 47  1  0      
 28 29  1  0      
 28 48  1  0      
 29 30  2  0      
 30 49  1  0      
M  END
