
  Chem3D Core 15.004011618133D

  0  0  0     0  0              0 V3000
M  V30 BEGIN CTAB
M  V30 COUNTS 74 76 0 0 0
M  V30 BEGIN ATOM
M  V30 1 C -1.671527 -2.407621 -6.001843 0
M  V30 2 C -4.033823 -3.038919 -6.543597 0
M  V30 3 C -4.852461 -2.505772 -3.681162 0
M  V30 4 C -0.257619 -3.717338 -1.347435 0
M  V30 5 C 1.585222 0.688528 4.469547 0
M  V30 6 C -0.125570 -1.643369 1.670959 0
M  V30 7 C 2.915781 -0.526089 0.383192 0
M  V30 8 C 2.581848 0.265346 1.657491 0
M  V30 9 C -2.425782 -1.967393 -3.159235 0
M  V30 10 C -2.386890 -2.691919 -2.029881 0
M  V30 11 C 1.117980 2.321841 1.956178 0
M  V30 12 C 1.849692 3.029859 2.835201 0
M  V30 13 C -1.739712 -0.153428 -0.500924 0
M  V30 14 C -1.069209 0.928716 0.367559 0
M  V30 15 C 1.804039 -1.530981 0.021982 0
M  V30 16 C 3.708466 3.730268 4.231056 0
M  V30 17 C 5.005180 1.972402 5.399568 0
M  V30 18 C -2.995186 -2.932742 -5.411647 0
M  V30 19 C -3.489328 -2.055246 -4.236410 0
M  V30 20 C -1.290425 -2.640398 -0.980837 0
M  V30 21 C 2.676071 1.479697 4.464658 0
M  V30 22 C 1.315618 1.081811 1.463050 0
M  V30 23 C 2.715999 2.657388 3.801004 0
M  V30 24 C 4.522726 3.411130 5.478490 0
M  V30 25 C -0.671941 -1.239326 -0.783620 0
M  V30 26 C 0.407390 0.516806 0.391748 0
M  V30 27 C 3.801722 1.039985 5.381929 0
M  V30 28 C 0.376456 -1.028341 0.344959 0
M  V30 29 O 3.728084 3.589891 6.627099 0
M  V30 30 O 4.241036 -0.248058 4.984552 0
M  V30 31 H -1.612478 -1.252429 -3.359889 0
M  V30 32 H -3.180800 -3.433403 -1.844168 0
M  V30 33 H 0.314964 2.889058 1.450635 0
M  V30 34 H 1.724306 4.123856 2.720068 0
M  V30 35 H -3.639866 -1.012030 -4.614933 0
M  V30 36 H -1.777721 -2.927375 -0.016515 0
M  V30 37 H 5.382914 4.114694 5.577975 0
M  V30 38 H -0.154823 -0.960004 -1.735061 0
M  V30 39 H 0.840573 0.879784 -0.576409 0
M  V30 40 H 3.392925 0.935905 6.414764 0
M  V30 41 H -0.837019 -2.447004 -5.266748 0
M  V30 42 H -1.345011 -3.018424 -6.873903 0
M  V30 43 H -1.778060 -1.354545 -6.348891 0
M  V30 44 H -4.954273 -3.573073 -6.218966 0
M  V30 45 H -4.326885 -2.030455 -6.914295 0
M  V30 46 H -3.632803 -3.613925 -7.409107 0
M  V30 47 H -5.673243 -2.339036 -4.414202 0
M  V30 48 H -5.129847 -1.925020 -2.771628 0
M  V30 49 H -4.857647 -3.588693 -3.422682 0
M  V30 50 H 0.495727 -3.863132 -0.543865 0
M  V30 51 H -0.744922 -4.707666 -1.499864 0
M  V30 52 H 0.278531 -3.456233 -2.288043 0
M  V30 53 H 1.550540 -0.228524 5.076902 0
M  V30 54 H 0.647151 0.921869 3.950426 0
M  V30 55 H -0.109545 -2.755056 1.636385 0
M  V30 56 H 0.495323 -1.352244 2.542782 0
M  V30 57 H -1.167346 -1.347006 1.918224 0
M  V30 58 H 3.884063 -1.068297 0.509986 0
M  V30 59 H 3.077460 0.191117 -0.456833 0
M  V30 60 H 2.478302 -0.475872 2.479075 0
M  V30 61 H 3.444784 0.928714 1.897950 0
M  V30 62 H -2.613477 -0.582310 0.042978 0
M  V30 63 H -2.128047 0.285208 -1.449384 0
M  V30 64 H -1.225047 1.949547 -0.051567 0
M  V30 65 H -1.486830 0.916599 1.401342 0
M  V30 66 H 1.996971 -2.481682 0.571280 0
M  V30 67 H 1.905056 -1.775899 -1.060756 0
M  V30 68 H 4.415431 3.870320 3.377062 0
M  V30 69 H 3.194724 4.707666 4.390884 0
M  V30 70 H 5.605043 1.843793 4.466873 0
M  V30 71 H 5.673243 1.728414 6.258878 0
M  V30 72 H -2.809095 -3.964867 -5.019736 0
M  V30 73 H 4.266496 3.448660 7.409107 0
M  V30 74 H 3.475220 -0.751564 4.699343 0
M  V30 END ATOM
M  V30 BEGIN BOND
M  V30 1 1 18 1
M  V30 2 1 1 41
M  V30 3 1 1 42
M  V30 4 1 1 43
M  V30 5 1 18 2
M  V30 6 1 2 44
M  V30 7 1 2 45
M  V30 8 1 2 46
M  V30 9 1 19 3
M  V30 10 1 3 47
M  V30 11 1 3 48
M  V30 12 1 3 49
M  V30 13 1 20 4
M  V30 14 1 4 50
M  V30 15 1 4 51
M  V30 16 1 4 52
M  V30 17 2 21 5
M  V30 18 1 5 53
M  V30 19 1 5 54
M  V30 20 1 28 6
M  V30 21 1 6 55
M  V30 22 1 6 56
M  V30 23 1 6 57
M  V30 24 1 8 7
M  V30 25 1 15 7
M  V30 26 1 7 58
M  V30 27 1 7 59
M  V30 28 1 22 8
M  V30 29 1 8 60
M  V30 30 1 8 61
M  V30 31 2 10 9
M  V30 32 1 19 9
M  V30 33 1 31 9
M  V30 34 1 20 10
M  V30 35 1 32 10
M  V30 36 1 12 11
M  V30 37 2 22 11
M  V30 38 1 33 11
M  V30 39 2 23 12
M  V30 40 1 34 12
M  V30 41 1 14 13
M  V30 42 1 25 13
M  V30 43 1 13 62
M  V30 44 1 13 63
M  V30 45 1 26 14
M  V30 46 1 14 64
M  V30 47 1 14 65
M  V30 48 1 28 15
M  V30 49 1 15 66
M  V30 50 1 15 67
M  V30 51 1 23 16
M  V30 52 1 24 16
M  V30 53 1 16 68
M  V30 54 1 16 69
M  V30 55 1 24 17
M  V30 56 1 27 17
M  V30 57 1 17 70
M  V30 58 1 17 71
M  V30 59 1 19 18
M  V30 60 1 18 72
M  V30 61 1 19 35
M  V30 62 1 25 20
M  V30 63 1 20 36
M  V30 64 1 23 21
M  V30 65 1 27 21
M  V30 66 1 26 22
M  V30 67 1 24 29
M  V30 68 1 24 37
M  V30 69 1 28 25
M  V30 70 1 25 38
M  V30 71 1 28 26
M  V30 72 1 26 39
M  V30 73 1 27 30
M  V30 74 1 27 40
M  V30 75 1 29 73
M  V30 76 1 30 74
M  V30 END BOND
M  V30 END CTAB
M  END
