
  Chem3D Core 15.008111512223D

 68 72  0  0  0  0  0  0  0  0999 V2000
   -4.1777   -2.1949   -3.8025 C   0  0  0  0  0  0  0  0  0  0  0  0
   -5.3385   -2.6914   -3.3699 C   0  0  0  0  0  0  0  0  0  0  0  0
   -5.5283   -2.8158   -2.0550 C   0  0  0  0  0  0  0  0  0  0  0  0
   -4.5956   -2.4623   -1.1473 C   0  0  0  0  0  0  0  0  0  0  0  0
   -4.8536   -2.6156    0.1990 O   0  0  0  0  0  0  0  0  0  0  0  0
   -6.0871   -3.1284    0.6482 C   0  0  0  0  0  0  0  0  0  0  0  0
   -3.2106   -1.8235   -2.9386 C   0  0  0  0  0  0  0  0  0  0  0  0
   -3.4117   -1.9546   -1.6103 C   0  0  0  0  0  0  0  0  0  0  0  0
   -2.0479   -1.3221   -3.4476 C   0  0  0  0  0  0  0  0  0  0  0  0
   -2.4066   -1.5737   -0.7562 C   0  0  0  0  0  0  0  0  0  0  0  0
   -1.0564   -0.9284   -2.5921 C   0  0  0  0  0  0  0  0  0  0  0  0
   -1.2323   -1.0622   -1.2581 C   0  0  0  0  0  0  0  0  0  0  0  0
    0.0988   -0.4059   -3.0789 C   0  0  0  0  0  0  0  0  0  0  0  0
   -0.2277   -0.6903   -0.4188 C   0  0  0  0  0  0  0  0  0  0  0  0
   -1.9230   -1.2457   -4.6544 O   0  0  0  0  0  0  0  0  0  0  0  0
   -2.5648   -1.6988    0.4437 O   0  0  0  0  0  0  0  0  0  0  0  0
    0.3519   -0.1860   -4.4063 O   0  0  0  0  0  0  0  0  0  0  0  0
   -0.3356   -0.7741    0.9411 O   0  0  0  0  0  0  0  0  0  0  0  0
    1.0726   -0.0241   -2.2275 C   0  0  0  0  0  0  0  0  0  0  0  0
    0.9358   -0.2018   -0.9024 C   0  0  0  0  0  0  0  0  0  0  0  0
    2.3175    0.6371   -2.8006 C   0  0  0  0  0  0  0  0  0  0  0  0
    2.0694    0.1599    0.0686 C   0  0  0  0  0  0  0  0  0  0  0  0
    3.3570    0.6345   -0.6055 C   0  0  0  0  0  0  0  0  0  0  0  0
    3.0473    1.5251   -1.7963 C   0  0  0  0  0  0  0  0  0  0  0  0
    2.2360    2.7619   -1.3857 C   0  0  0  0  0  0  0  0  0  0  0  0
    1.0961    2.9380   -1.7546 O   0  0  0  0  0  0  0  0  0  0  0  0
    2.9094    3.7935   -0.4865 C   0  0  0  0  0  0  0  0  0  0  0  0
    2.8288    3.3979    0.8758 O   0  0  0  0  0  0  0  0  0  0  0  0
    4.2614    1.9424   -2.3833 O   0  0  0  0  0  0  0  0  0  0  0  0
    2.3594   -0.9601    0.8839 O   0  0  0  0  0  0  0  0  0  0  0  0
    3.1791   -0.7026    2.0050 C   0  0  0  0  0  0  0  0  0  0  0  0
    2.7252   -1.5238    3.2004 C   0  0  0  0  0  0  0  0  0  0  0  0
    4.5152   -0.9919    1.6534 O   0  0  0  0  0  0  0  0  0  0  0  0
    4.7747   -2.3437    1.3874 C   0  0  0  0  0  0  0  0  0  0  0  0
    6.2456   -2.4757    0.9883 C   0  0  0  0  0  0  0  0  0  0  0  0
    4.4136   -3.2357    2.5660 C   0  0  0  0  0  0  0  0  0  0  0  0
    2.9608   -3.0199    2.9726 C   0  0  0  0  0  0  0  0  0  0  0  0
    5.2467   -2.9694    3.6698 O   0  0  0  0  0  0  0  0  0  0  0  0
    2.6761   -3.7740    4.2053 N   0  0  0  0  0  0  0  0  0  0  0  0
   -4.0919   -2.1196   -4.8990 H   0  0  0  0  0  0  0  0  0  0  0  0
   -6.1249   -2.9921   -4.0832 H   0  0  0  0  0  0  0  0  0  0  0  0
   -6.5047   -3.2305   -1.7611 H   0  0  0  0  0  0  0  0  0  0  0  0
   -6.0549   -3.1508    1.7609 H   0  0  0  0  0  0  0  0  0  0  0  0
   -6.9234   -2.4584    0.3474 H   0  0  0  0  0  0  0  0  0  0  0  0
   -6.2302   -4.1736    0.2935 H   0  0  0  0  0  0  0  0  0  0  0  0
   -0.4285   -0.0506   -4.9566 H   0  0  0  0  0  0  0  0  0  0  0  0
    0.4299   -0.3887    1.3888 H   0  0  0  0  0  0  0  0  0  0  0  0
    2.0932    1.2919   -3.6740 H   0  0  0  0  0  0  0  0  0  0  0  0
    2.9889   -0.1734   -3.1714 H   0  0  0  0  0  0  0  0  0  0  0  0
    1.6605    0.9817    0.7040 H   0  0  0  0  0  0  0  0  0  0  0  0
    3.9369   -0.2467   -0.9707 H   0  0  0  0  0  0  0  0  0  0  0  0
    4.0216    1.1684    0.1107 H   0  0  0  0  0  0  0  0  0  0  0  0
    3.9809    3.9282   -0.7459 H   0  0  0  0  0  0  0  0  0  0  0  0
    2.3997    4.7786   -0.5712 H   0  0  0  0  0  0  0  0  0  0  0  0
    3.0797    4.1208    1.4531 H   0  0  0  0  0  0  0  0  0  0  0  0
    4.6969    1.2107   -2.8234 H   0  0  0  0  0  0  0  0  0  0  0  0
    3.1264    0.3758    2.2814 H   0  0  0  0  0  0  0  0  0  0  0  0
    1.6450   -1.3342    3.4067 H   0  0  0  0  0  0  0  0  0  0  0  0
    3.2871   -1.1909    4.1055 H   0  0  0  0  0  0  0  0  0  0  0  0
    4.1702   -2.6596    0.5025 H   0  0  0  0  0  0  0  0  0  0  0  0
    6.5103   -3.5350    0.7673 H   0  0  0  0  0  0  0  0  0  0  0  0
    6.9234   -2.1129    1.7936 H   0  0  0  0  0  0  0  0  0  0  0  0
    6.4656   -1.8762    0.0748 H   0  0  0  0  0  0  0  0  0  0  0  0
    4.5792   -4.3065    2.3013 H   0  0  0  0  0  0  0  0  0  0  0  0
    2.2831   -3.3938    2.1676 H   0  0  0  0  0  0  0  0  0  0  0  0
    6.1540   -3.1969    3.4583 H   0  0  0  0  0  0  0  0  0  0  0  0
    2.8848   -4.7786    4.0725 H   0  0  0  0  0  0  0  0  0  0  0  0
    3.3185   -3.4662    4.9566 H   0  0  0  0  0  0  0  0  0  0  0  0
  1  2  2  0      
  7  1  1  0      
  1 40  1  0      
  2  3  1  0      
  2 41  1  0      
  3  4  2  0      
  3 42  1  0      
  4  5  1  0      
  4  8  1  0      
  5  6  1  0      
  6 43  1  0      
  6 44  1  0      
  6 45  1  0      
  7  8  2  0      
  9  7  1  0      
  8 10  1  0      
 11  9  1  0      
  9 15  2  0      
 10 12  1  0      
 10 16  2  0      
 11 12  1  0      
 13 11  2  0      
 12 14  2  0      
 13 17  1  0      
 19 13  1  0      
 14 18  1  0      
 14 20  1  0      
 17 46  1  0      
 18 47  1  0      
 19 20  2  0      
 21 19  1  0      
 20 22  1  0      
 24 21  1  0      
 21 48  1  0      
 21 49  1  0      
 23 22  1  0      
 22 30  1  0      
 22 50  1  0      
 23 24  1  0      
 23 51  1  0      
 23 52  1  0      
 24 25  1  0      
 24 29  1  0      
 25 26  2  0      
 25 27  1  0      
 27 28  1  0      
 27 53  1  0      
 27 54  1  0      
 28 55  1  0      
 29 56  1  0      
 31 30  1  0      
 31 32  1  0      
 31 33  1  0      
 31 57  1  0      
 32 37  1  0      
 32 58  1  0      
 32 59  1  0      
 34 33  1  0      
 34 35  1  0      
 36 34  1  0      
 34 60  1  0      
 35 61  1  0      
 35 62  1  0      
 35 63  1  0      
 37 36  1  0      
 36 38  1  0      
 36 64  1  0      
 37 39  1  0      
 37 65  1  0      
 38 66  1  0      
 39 67  1  0      
 39 68  1  0      
M  END
