
  Chem3D Core 15.010021516103D

 67 71  0  0  0  0  0  0  0  0999 V2000
    1.4430   -1.5824    0.8653 C   0  0  0  0  0  0  0  0  0  0  0  0
    1.2220   -1.3507   -0.6467 C   0  0  0  0  0  0  0  0  0  0  0  0
    0.0843   -0.3389   -0.8631 C   0  0  0  0  0  0  0  0  0  0  0  0
   -1.2833   -0.9310   -0.4702 C   0  0  0  0  0  0  0  0  0  0  0  0
   -1.5997   -2.2632   -1.1854 C   0  0  0  0  0  0  0  0  0  0  0  0
   -1.6445   -2.0201   -2.2778 H   0  0  0  0  0  0  0  0  0  0  0  0
   -0.4413   -3.2802   -0.9983 C   0  0  0  0  0  0  0  0  0  0  0  0
   -0.3424   -3.5414    0.0800 H   0  0  0  0  0  0  0  0  0  0  0  0
    0.8681   -2.6188   -1.4504 C   0  0  0  0  0  0  0  0  0  0  0  0
    0.7136   -2.3227   -2.5204 H   0  0  0  0  0  0  0  0  0  0  0  0
    2.1639   -3.4363   -1.4353 C   0  0  0  0  0  0  0  0  0  0  0  0
    3.2745   -2.3643   -1.4717 C   0  0  0  0  0  0  0  0  0  0  0  0
    2.5744   -0.9929   -1.3074 C   0  0  0  0  0  0  0  0  0  0  0  0
    2.3768   -0.6027   -2.3378 H   0  0  0  0  0  0  0  0  0  0  0  0
    3.3699    0.0962   -0.5997 C   0  0  0  0  0  0  0  0  0  0  0  0
    4.3378   -0.1465    0.0747 O   0  0  0  0  0  0  0  0  0  0  0  0
    2.8857    1.3551   -0.8194 N   0  0  0  0  0  0  0  0  0  0  0  0
    3.2349    2.5803   -0.3691 C   0  0  0  0  0  0  0  0  0  0  0  0
    2.5857    3.6313   -0.9216 C   0  0  0  0  0  0  0  0  0  0  0  0
    2.8969    4.8703   -0.4999 C   0  0  0  0  0  0  0  0  0  0  0  0
    3.8173    5.0803    0.4511 C   0  0  0  0  0  0  0  0  0  0  0  0
    4.4848    4.0511    0.9965 C   0  0  0  0  0  0  0  0  0  0  0  0
    4.1544    2.8134    0.5862 C   0  0  0  0  0  0  0  0  0  0  0  0
    5.4790    4.2720    2.1170 C   0  0  0  0  0  0  0  0  0  0  0  0
    5.2546    5.3951    2.7811 F   0  0  0  0  0  0  0  0  0  0  0  0
    5.4845    3.2828    2.9970 F   0  0  0  0  0  0  0  0  0  0  0  0
    6.6988    4.3552    1.6078 F   0  0  0  0  0  0  0  0  0  0  0  0
    1.5552    3.4551   -2.0249 C   0  0  0  0  0  0  0  0  0  0  0  0
    0.4939    2.8313   -1.5398 F   0  0  0  0  0  0  0  0  0  0  0  0
    1.1393    4.5869   -2.5708 F   0  0  0  0  0  0  0  0  0  0  0  0
    2.0347    2.6941   -2.9970 F   0  0  0  0  0  0  0  0  0  0  0  0
   -0.6943   -4.5976   -1.7525 C   0  0  0  0  0  0  0  0  0  0  0  0
   -2.0595   -5.2071   -1.4013 C   0  0  0  0  0  0  0  0  0  0  0  0
   -3.1553   -4.1709   -1.6671 C   0  0  0  0  0  0  0  0  0  0  0  0
   -3.0723   -3.8951   -2.7499 H   0  0  0  0  0  0  0  0  0  0  0  0
   -2.9725   -2.8907   -0.8263 C   0  0  0  0  0  0  0  0  0  0  0  0
   -4.1687   -2.0296   -1.1876 C   0  0  0  0  0  0  0  0  0  0  0  0
   -5.3763   -2.5529   -1.4561 C   0  0  0  0  0  0  0  0  0  0  0  0
   -5.6027   -3.8904   -1.5181 C   0  0  0  0  0  0  0  0  0  0  0  0
   -6.6988   -4.3807   -1.6298 O   0  0  0  0  0  0  0  0  0  0  0  0
   -4.5093   -4.7029   -1.5132 N   0  0  0  0  0  0  0  0  0  0  0  0
   -3.1120   -3.1737    0.6870 C   0  0  0  0  0  0  0  0  0  0  0  0
    2.2861   -2.2745    1.0767 H   0  0  0  0  0  0  0  0  0  0  0  0
    1.6784   -0.6249    1.3820 H   0  0  0  0  0  0  0  0  0  0  0  0
    0.5567   -2.0045    1.3826 H   0  0  0  0  0  0  0  0  0  0  0  0
    0.0479   -0.0311   -1.9346 H   0  0  0  0  0  0  0  0  0  0  0  0
    0.2814    0.5829   -0.2687 H   0  0  0  0  0  0  0  0  0  0  0  0
   -2.0618   -0.1672   -0.6998 H   0  0  0  0  0  0  0  0  0  0  0  0
   -1.3140   -1.0766    0.6321 H   0  0  0  0  0  0  0  0  0  0  0  0
    2.2194   -4.0392   -0.4994 H   0  0  0  0  0  0  0  0  0  0  0  0
    2.2311   -4.1395   -2.2968 H   0  0  0  0  0  0  0  0  0  0  0  0
    3.8416   -2.3985   -2.4313 H   0  0  0  0  0  0  0  0  0  0  0  0
    4.0042   -2.5727   -0.6566 H   0  0  0  0  0  0  0  0  0  0  0  0
    2.1245    1.4305   -1.4789 H   0  0  0  0  0  0  0  0  0  0  0  0
    2.3905    5.7513   -0.9269 H   0  0  0  0  0  0  0  0  0  0  0  0
    4.0248    6.1137    0.7740 H   0  0  0  0  0  0  0  0  0  0  0  0
    4.6778    1.9866    1.0821 H   0  0  0  0  0  0  0  0  0  0  0  0
    0.1068   -5.3379   -1.5180 H   0  0  0  0  0  0  0  0  0  0  0  0
   -0.6484   -4.4066   -2.8509 H   0  0  0  0  0  0  0  0  0  0  0  0
   -2.0814   -5.5433   -0.3403 H   0  0  0  0  0  0  0  0  0  0  0  0
   -2.2370   -6.1137   -2.0280 H   0  0  0  0  0  0  0  0  0  0  0  0
   -4.0681   -0.9350   -1.1311 H   0  0  0  0  0  0  0  0  0  0  0  0
   -6.2299   -1.8643   -1.5830 H   0  0  0  0  0  0  0  0  0  0  0  0
   -4.6910   -5.6995   -1.6151 H   0  0  0  0  0  0  0  0  0  0  0  0
   -2.2705   -3.7654    1.1039 H   0  0  0  0  0  0  0  0  0  0  0  0
   -3.1661   -2.2308    1.2755 H   0  0  0  0  0  0  0  0  0  0  0  0
   -4.0409   -3.7403    0.9209 H   0  0  0  0  0  0  0  0  0  0  0  0
  2  1  1  0      
  1 43  1  0      
  1 44  1  0      
  1 45  1  0      
  3  2  1  0      
  2  9  1  0      
  2 13  1  0      
  4  3  1  0      
  3 46  1  0      
  3 47  1  0      
  5  4  1  0      
  4 48  1  0      
  4 49  1  0      
  5  6  1  0      
  5  7  1  0      
 36  5  1  0      
  7  8  1  0      
  9  7  1  0      
  7 32  1  0      
  9 10  1  0      
 11  9  1  0      
 12 11  1  0      
 11 50  1  0      
 11 51  1  0      
 13 12  1  0      
 12 52  1  0      
 12 53  1  0      
 13 14  1  0      
 13 15  1  0      
 15 16  2  0      
 15 17  1  0      
 17 18  1  0      
 17 54  1  0      
 18 19  1  0      
 18 23  2  0      
 19 20  2  0      
 19 28  1  0      
 20 21  1  0      
 20 55  1  0      
 21 22  2  0      
 21 56  1  0      
 22 23  1  0      
 22 24  1  0      
 23 57  1  0      
 24 25  1  0      
 24 26  1  0      
 24 27  1  0      
 28 29  1  0      
 28 30  1  0      
 28 31  1  0      
 32 33  1  0      
 32 58  1  0      
 32 59  1  0      
 33 34  1  0      
 33 60  1  0      
 33 61  1  0      
 34 35  1  0      
 36 34  1  0      
 34 41  1  0      
 36 37  1  0      
 36 42  1  0      
 37 38  2  0      
 37 62  1  0      
 38 39  1  0      
 38 63  1  0      
 39 40  2  0      
 41 39  1  0      
 41 64  1  0      
 42 65  1  0      
 42 66  1  0      
 42 67  1  0      
M  END
