
  Chem3D Core 15.008141512273D

 47 51  0  0  0  0  0  0  0  0999 V2000
    1.3626    1.8943   -0.2991 C   0  0  0  0  0  0  0  0  0  0  0  0
    0.1875    1.2449   -0.6012 N   0  0  0  0  0  0  0  0  0  0  0  0
    0.1562    0.0884   -1.3031 C   0  0  0  0  0  0  0  0  0  0  0  0
    1.3283   -0.4056   -1.7226 C   0  0  0  0  0  0  0  0  0  0  0  0
    2.4930    0.2065   -1.4572 C   0  0  0  0  0  0  0  0  0  0  0  0
    3.6148   -0.3721   -1.9259 C   0  0  0  0  0  0  0  0  0  0  0  0
    4.8132    0.1774   -1.7020 C   0  0  0  0  0  0  0  0  0  0  0  0
    4.8788    1.3152   -1.0022 C   0  0  0  0  0  0  0  0  0  0  0  0
    3.7654    1.9040   -0.5278 C   0  0  0  0  0  0  0  0  0  0  0  0
    2.5417    1.3569   -0.7480 C   0  0  0  0  0  0  0  0  0  0  0  0
    1.2983    2.9175    0.3426 O   0  0  0  0  0  0  0  0  0  0  0  0
   -1.1236   -0.6624   -1.6519 C   0  0  0  0  0  0  0  0  0  0  0  0
   -1.6542   -0.2789   -3.0403 C   0  0  0  0  0  0  0  0  0  0  0  0
   -2.1783   -0.5199   -0.6253 N   0  0  0  0  0  0  0  0  0  0  0  0
   -4.2606   -0.1777    1.1511 N   0  0  0  0  0  0  0  0  0  0  0  0
   -4.9630   -0.3649    2.1860 C   0  0  0  0  0  0  0  0  0  0  0  0
   -4.4845   -1.2767    2.9237 N   0  0  0  0  0  0  0  0  0  0  0  0
   -3.4307   -1.7195    2.3781 C   0  0  0  0  0  0  0  0  0  0  0  0
   -2.5895   -2.6092    2.6834 N   0  0  0  0  0  0  0  0  0  0  0  0
   -1.6434   -2.7633    1.8546 C   0  0  0  0  0  0  0  0  0  0  0  0
   -1.4451   -2.1357    0.7707 N   0  0  0  0  0  0  0  0  0  0  0  0
   -2.2640   -1.2286    0.4259 C   0  0  0  0  0  0  0  0  0  0  0  0
   -3.3030   -1.0020    1.2480 C   0  0  0  0  0  0  0  0  0  0  0  0
   -0.9441    1.7605   -0.0640 C   0  0  0  0  0  0  0  0  0  0  0  0
   -1.1886    1.6259    1.2526 C   0  0  0  0  0  0  0  0  0  0  0  0
   -2.2953    2.1522    1.7995 C   0  0  0  0  0  0  0  0  0  0  0  0
   -3.1688    2.8223    1.0327 C   0  0  0  0  0  0  0  0  0  0  0  0
   -2.9250    2.9746   -0.2777 C   0  0  0  0  0  0  0  0  0  0  0  0
   -1.8123    2.4555   -0.8192 C   0  0  0  0  0  0  0  0  0  0  0  0
    4.1063    3.3673    0.3473 Cl  0  0  0  0  0  0  0  0  0  0  0  0
    1.3125   -1.3430   -2.3044 H   0  0  0  0  0  0  0  0  0  0  0  0
    3.5842   -1.3112   -2.5055 H   0  0  0  0  0  0  0  0  0  0  0  0
    5.7303   -0.2989   -2.0872 H   0  0  0  0  0  0  0  0  0  0  0  0
    5.8798    1.7489   -0.8307 H   0  0  0  0  0  0  0  0  0  0  0  0
   -0.8906   -1.7554   -1.7058 H   0  0  0  0  0  0  0  0  0  0  0  0
   -2.5475   -0.8899   -3.3058 H   0  0  0  0  0  0  0  0  0  0  0  0
   -0.8851   -0.4473   -3.8286 H   0  0  0  0  0  0  0  0  0  0  0  0
   -1.9601    0.7874   -3.0928 H   0  0  0  0  0  0  0  0  0  0  0  0
   -2.9176    0.2139   -0.7631 H   0  0  0  0  0  0  0  0  0  0  0  0
   -5.8798    0.1735    2.4498 H   0  0  0  0  0  0  0  0  0  0  0  0
   -4.8868   -1.6101    3.8286 H   0  0  0  0  0  0  0  0  0  0  0  0
   -0.8998   -3.5385    2.1083 H   0  0  0  0  0  0  0  0  0  0  0  0
   -0.4802    1.0750    1.8944 H   0  0  0  0  0  0  0  0  0  0  0  0
   -2.4896    2.0293    2.8781 H   0  0  0  0  0  0  0  0  0  0  0  0
   -4.0803    3.2523    1.4801 H   0  0  0  0  0  0  0  0  0  0  0  0
   -3.6333    3.5385   -0.9073 H   0  0  0  0  0  0  0  0  0  0  0  0
   -1.6097    2.6170   -1.8900 H   0  0  0  0  0  0  0  0  0  0  0  0
  1  2  1  0      
 10  1  1  0      
  1 11  2  0      
  2  3  1  0      
  2 24  1  0      
  3  4  2  0      
  3 12  1  0      
  4  5  1  0      
  4 31  1  0      
  6  5  2  0      
 10  5  1  0      
  6  7  1  0      
  6 32  1  0      
  7  8  2  0      
  7 33  1  0      
  8  9  1  0      
  8 34  1  0      
  9 10  2  0      
  9 30  1  0      
 12 13  1  0      
 12 14  1  0      
 12 35  1  0      
 13 36  1  0      
 13 37  1  0      
 13 38  1  0      
 14 22  1  0      
 14 39  1  0      
 16 15  2  0      
 15 23  1  0      
 16 17  1  0      
 16 40  1  0      
 18 17  1  0      
 17 41  1  0      
 19 18  1  0      
 23 18  2  0      
 20 19  2  0      
 21 20  1  0      
 20 42  1  0      
 22 21  2  0      
 23 22  1  0      
 24 25  1  0      
 24 29  2  0      
 25 26  2  0      
 25 43  1  0      
 26 27  1  0      
 26 44  1  0      
 27 28  2  0      
 27 45  1  0      
 28 29  1  0      
 28 46  1  0      
 29 47  1  0      
M  END
