
  Chem3D Core 15.003291616333D

  0  0  0     0  0              0 V3000
M  V30 BEGIN CTAB
M  V30 COUNTS 141 146 0 0 0
M  V30 BEGIN ATOM
M  V30 1 S -1.515618 -0.947966 2.780741 0
M  V30 2 S -1.828830 -0.367688 5.709496 0
M  V30 3 O 3.421539 2.012730 1.235973 0
M  V30 4 O -1.892493 -3.917030 1.728358 0
M  V30 5 O 1.323666 0.439685 2.423974 0
M  V30 6 O -4.911177 0.303351 -0.604493 0
M  V30 7 O 3.470895 2.738334 3.399618 0
M  V30 8 O 1.616496 -2.278436 7.509781 0
M  V30 9 O -2.244196 -3.205931 -0.426353 0
M  V30 10 O -0.907204 3.043163 0.426391 0
M  V30 11 O 2.004977 -4.235842 3.931566 0
M  V30 12 O 1.053154 2.992512 -2.272325 0
M  V30 13 O 2.319174 -6.955904 0.386052 0
M  V30 14 O 5.514418 1.079916 -2.429783 0
M  V30 15 N 3.053462 -0.269489 3.700607 0
M  V30 16 N -4.506005 -1.769057 0.211319 0
M  V30 17 N 1.030814 -0.973972 5.767186 0
M  V30 18 N -2.577513 1.521881 0.369981 0
M  V30 19 N -0.095006 -3.665312 4.524730 0
M  V30 20 N 1.057721 1.585796 -0.495569 0
M  V30 21 N 1.191566 -5.940076 1.920270 0
M  V30 22 N 4.034788 2.106301 -1.242915 0
M  V30 23 N 2.791846 -4.844902 -1.070819 0
M  V30 24 N 3.681755 3.704996 -3.576242 0
M  V30 25 N 2.572769 -2.450940 -0.023383 0
M  V30 26 N 5.053549 3.161666 -5.745917 0
M  V30 27 C 0.651532 -0.787342 4.369841 0
M  V30 28 C 4.080976 0.435480 2.908742 0
M  V30 29 C -2.966229 0.161392 0.792169 0
M  V30 30 C -3.932208 -2.698410 1.208274 0
M  V30 31 C -0.781537 -0.171439 4.229682 0
M  V30 32 C 4.640187 -0.369355 1.704954 0
M  V30 33 C -4.865158 -3.711386 1.924290 0
M  V30 34 C 1.705182 -0.145202 3.410901 0
M  V30 35 C -2.878007 0.164838 2.340028 0
M  V30 36 C -4.235448 -0.407640 0.102044 0
M  V30 37 C 3.626594 1.870015 2.571169 0
M  V30 38 C 4.949131 -1.848946 2.000585 0
M  V30 39 C 5.938090 0.252279 1.144764 0
M  V30 40 C 1.043176 -2.180518 6.449516 0
M  V30 41 C 3.616390 -1.120915 4.747014 0
M  V30 42 C -2.620815 -3.322873 0.719658 0
M  V30 43 C 0.185308 -3.383322 5.949486 0
M  V30 44 C -5.283280 -4.951921 1.119157 0
M  V30 45 C -6.083931 -3.025235 2.566460 0
M  V30 46 C -1.279447 1.935897 0.111273 0
M  V30 47 C -5.373521 -2.405490 -0.775754 0
M  V30 48 C -0.308127 1.057610 -0.711870 0
M  V30 49 C 1.356089 0.278579 6.457845 0
M  V30 50 C -3.586977 2.534395 0.697146 0
M  V30 51 C 0.237087 -4.950558 2.463656 0
M  V30 52 C 2.983608 3.059729 -0.845219 0
M  V30 53 C 3.066322 3.248403 0.685886 0
M  V30 54 C -0.548461 -4.174600 1.393460 0
M  V30 55 C 0.539878 -4.701887 6.668896 0
M  V30 56 C 0.824629 -4.233566 3.686301 0
M  V30 57 C -0.177842 -0.467576 -0.647957 0
M  V30 58 C 1.605153 2.561488 -1.288886 0
M  V30 59 C -3.005558 -1.694589 5.350190 0
M  V30 60 C 1.980107 -5.868823 0.800324 0
M  V30 61 C 4.704067 1.978071 -2.429039 0
M  V30 62 C 2.326936 -4.740664 0.106962 0
M  V30 63 C 4.507061 2.746927 -3.541982 0
M  V30 64 C 2.266627 -3.497877 0.615087 0
M  V30 65 C 5.193293 2.498950 -4.677670 0
M  V30 66 C 3.107453 -3.816623 -1.740758 0
M  V30 67 C 3.514460 4.386758 -4.629967 0
M  V30 68 C 2.990651 -2.584900 -1.209436 0
M  V30 69 C 4.216888 4.110879 -5.745448 0
M  V30 70 C 3.555621 -3.948897 -3.002208 0
M  V30 71 C 2.627044 5.397418 -4.637468 0
M  V30 72 C 3.321718 -1.502892 -1.935347 0
M  V30 73 C 4.027044 4.845655 -6.855384 0
M  V30 74 C 3.879506 -2.867667 -3.728047 0
M  V30 75 C 2.439562 6.128459 -5.746895 0
M  V30 76 C 3.760427 -1.642583 -3.195413 0
M  V30 77 C 3.140196 5.852781 -6.857130 0
M  V30 78 H 0.682544 -1.786328 3.894082 0
M  V30 79 H -2.236815 -0.547940 0.368803 0
M  V30 80 H -0.648207 0.927594 4.083370 0
M  V30 81 H -1.058809 -3.609908 4.189291 0
M  V30 82 H 1.549849 1.291123 0.353574 0
M  V30 83 H 1.199033 -6.865418 2.348021 0
M  V30 84 H 4.292879 1.374529 -0.580148 0
M  V30 85 H 4.958464 0.625362 3.577404 0
M  V30 86 H -3.652524 -2.072504 2.075608 0
M  V30 87 H 3.861895 -0.361114 0.904438 0
M  V30 88 H -4.270254 -4.126007 2.784275 0
M  V30 89 H -2.641249 1.178949 2.733370 0
M  V30 90 H -3.856389 -0.089786 2.799747 0
M  V30 91 H 4.068119 -2.388284 2.409903 0
M  V30 92 H 5.791699 -1.959132 2.718703 0
M  V30 93 H 5.247735 -2.388568 1.072504 0
M  V30 94 H 6.265670 -0.274794 0.219694 0
M  V30 95 H 5.843585 1.326692 0.880919 0
M  V30 96 H 6.766593 0.180203 1.885566 0
M  V30 97 H 3.093239 -2.096279 4.810092 0
M  V30 98 H 4.681318 -1.378053 4.572310 0
M  V30 99 H 3.634724 -0.601054 5.724490 0
M  V30 100 H -0.815852 -3.109544 6.369604 0
M  V30 101 H -5.667036 -5.750432 1.795399 0
M  V30 102 H -4.426083 -5.385188 0.556098 0
M  V30 103 H -6.109814 -4.739846 0.407842 0
M  V30 104 H -6.677254 -3.747185 3.172947 0
M  V30 105 H -5.776482 -2.197403 3.245238 0
M  V30 106 H -6.766593 -2.594254 1.802685 0
M  V30 107 H -5.028121 -3.433187 -1.016506 0
M  V30 108 H -6.431989 -2.415298 -0.435540 0
M  V30 109 H -5.333488 -1.879714 -1.755550 0
M  V30 110 H -0.632185 1.261408 -1.763320 0
M  V30 111 H 1.520324 1.121665 5.750746 0
M  V30 112 H 0.520325 0.566891 7.133461 0
M  V30 113 H 2.258049 0.198329 7.101598 0
M  V30 114 H -3.233564 3.217861 1.501653 0
M  V30 115 H -3.816535 3.141958 -0.207603 0
M  V30 116 H -4.538586 2.104345 1.078004 0
M  V30 117 H -0.534535 -5.614584 2.936430 0
M  V30 118 H 3.156406 4.077858 -1.261030 0
M  V30 119 H 2.099593 3.595515 1.115802 0
M  V30 120 H 3.867039 3.981838 0.943027 0
M  V30 121 H -0.089045 -3.186699 1.181844 0
M  V30 122 H -0.543241 -4.796691 0.466879 0
M  V30 123 H 1.589567 -5.006689 6.457068 0
M  V30 124 H -0.126510 -5.531862 6.338667 0
M  V30 125 H 0.427075 -4.627289 7.774652 0
M  V30 126 H -1.021480 -1.003718 -1.133900 0
M  V30 127 H 0.004555 -0.836120 0.383743 0
M  V30 128 H 0.701630 -0.792462 -1.247638 0
M  V30 129 H -3.473277 -2.009339 6.309742 0
M  V30 130 H -3.822775 -1.333173 4.690856 0
M  V30 131 H -2.530110 -2.589004 4.897512 0
M  V30 132 H 1.959919 -3.292252 1.646974 0
M  V30 133 H 5.935077 1.687318 -4.764942 0
M  V30 134 H 3.653840 -4.949253 -3.457809 0
M  V30 135 H 2.044035 5.635474 -3.731202 0
M  V30 136 H 3.226359 -0.492271 -1.505187 0
M  V30 137 H 4.597527 4.628335 -7.774652 0
M  V30 138 H 4.238613 -2.984461 -4.764422 0
M  V30 139 H 1.710326 6.955904 -5.746668 0
M  V30 140 H 4.020267 -0.754635 -3.795169 0
M  V30 141 H 2.987586 6.453074 -7.769816 0
M  V30 END ATOM
M  V30 BEGIN BOND
M  V30 1 1 31 1
M  V30 2 1 1 35
M  V30 3 1 2 31
M  V30 4 1 2 59
M  V30 5 1 3 37
M  V30 6 1 53 3
M  V30 7 1 4 42
M  V30 8 1 54 4
M  V30 9 2 5 34
M  V30 10 2 6 36
M  V30 11 2 7 37
M  V30 12 2 8 40
M  V30 13 2 9 42
M  V30 14 2 10 46
M  V30 15 2 11 56
M  V30 16 2 12 58
M  V30 17 2 13 60
M  V30 18 2 14 61
M  V30 19 1 28 15
M  V30 20 1 15 34
M  V30 21 1 15 41
M  V30 22 1 30 16
M  V30 23 1 16 36
M  V30 24 1 16 47
M  V30 25 1 27 17
M  V30 26 1 17 40
M  V30 27 1 17 49
M  V30 28 1 29 18
M  V30 29 1 18 46
M  V30 30 1 18 50
M  V30 31 1 43 19
M  V30 32 1 19 56
M  V30 33 1 19 81
M  V30 34 1 48 20
M  V30 35 1 20 58
M  V30 36 1 20 82
M  V30 37 1 51 21
M  V30 38 1 21 60
M  V30 39 1 21 83
M  V30 40 1 52 22
M  V30 41 1 22 61
M  V30 42 1 22 84
M  V30 43 1 23 62
M  V30 44 2 66 23
M  V30 45 1 24 63
M  V30 46 2 67 24
M  V30 47 1 64 25
M  V30 48 2 25 68
M  V30 49 1 65 26
M  V30 50 2 26 69
M  V30 51 1 31 27
M  V30 52 1 34 27
M  V30 53 1 27 78
M  V30 54 1 28 32
M  V30 55 1 37 28
M  V30 56 1 28 85
M  V30 57 1 35 29
M  V30 58 1 29 36
M  V30 59 1 29 79
M  V30 60 1 30 33
M  V30 61 1 42 30
M  V30 62 1 30 86
M  V30 63 1 31 80
M  V30 64 1 32 38
M  V30 65 1 32 39
M  V30 66 1 32 87
M  V30 67 1 33 44
M  V30 68 1 33 45
M  V30 69 1 33 88
M  V30 70 1 35 89
M  V30 71 1 35 90
M  V30 72 1 38 91
M  V30 73 1 38 92
M  V30 74 1 38 93
M  V30 75 1 39 94
M  V30 76 1 39 95
M  V30 77 1 39 96
M  V30 78 1 40 43
M  V30 79 1 41 97
M  V30 80 1 41 98
M  V30 81 1 41 99
M  V30 82 1 43 55
M  V30 83 1 43 100
M  V30 84 1 44 101
M  V30 85 1 44 102
M  V30 86 1 44 103
M  V30 87 1 45 104
M  V30 88 1 45 105
M  V30 89 1 45 106
M  V30 90 1 46 48
M  V30 91 1 47 107
M  V30 92 1 47 108
M  V30 93 1 47 109
M  V30 94 1 48 57
M  V30 95 1 48 110
M  V30 96 1 49 111
M  V30 97 1 49 112
M  V30 98 1 49 113
M  V30 99 1 50 114
M  V30 100 1 50 115
M  V30 101 1 50 116
M  V30 102 1 51 54
M  V30 103 1 56 51
M  V30 104 1 51 117
M  V30 105 1 52 53
M  V30 106 1 58 52
M  V30 107 1 52 118
M  V30 108 1 53 119
M  V30 109 1 53 120
M  V30 110 1 54 121
M  V30 111 1 54 122
M  V30 112 1 55 123
M  V30 113 1 55 124
M  V30 114 1 55 125
M  V30 115 1 57 126
M  V30 116 1 57 127
M  V30 117 1 57 128
M  V30 118 1 59 129
M  V30 119 1 59 130
M  V30 120 1 59 131
M  V30 121 1 60 62
M  V30 122 1 61 63
M  V30 123 2 62 64
M  V30 124 2 63 65
M  V30 125 1 64 132
M  V30 126 1 65 133
M  V30 127 1 66 68
M  V30 128 1 70 66
M  V30 129 1 67 69
M  V30 130 1 71 67
M  V30 131 1 68 72
M  V30 132 1 69 73
M  V30 133 2 74 70
M  V30 134 1 70 134
M  V30 135 2 75 71
M  V30 136 1 71 135
M  V30 137 2 72 76
M  V30 138 1 72 136
M  V30 139 2 73 77
M  V30 140 1 73 137
M  V30 141 1 74 76
M  V30 142 1 74 138
M  V30 143 1 75 77
M  V30 144 1 75 139
M  V30 145 1 76 140
M  V30 146 1 77 141
M  V30 END BOND
M  V30 END CTAB
M  END
