
  Chem3D Core 15.010021516043D

 30 32  0  0  0  0  0  0  0  0999 V2000
   -3.1446    0.8435    3.4699 O   0  0  0  0  0  0  0  0  0  0  0  0
   -2.8155    0.6326    2.3257 C   0  0  0  0  0  0  0  0  0  0  0  0
   -3.2248   -0.5158    1.7436 N   0  0  0  0  0  0  0  0  0  0  0  0
   -2.8778   -0.9314    0.5182 C   0  0  0  0  0  0  0  0  0  0  0  0
   -3.2697   -2.1386    0.0847 C   0  0  0  0  0  0  0  0  0  0  0  0
   -2.9012   -2.5589   -1.1344 C   0  0  0  0  0  0  0  0  0  0  0  0
   -2.1403   -1.7635   -1.9019 C   0  0  0  0  0  0  0  0  0  0  0  0
   -1.6476   -2.2973   -3.4699 Cl  0  0  0  0  0  0  0  0  0  0  0  0
   -1.7628   -0.5543   -1.4542 C   0  0  0  0  0  0  0  0  0  0  0  0
   -2.1307   -0.1097   -0.2367 C   0  0  0  0  0  0  0  0  0  0  0  0
   -1.7305    1.2761    0.2737 C   0  0  0  0  0  0  0  0  0  0  0  0
   -2.3835    2.3606   -0.5378 C   0  0  0  0  0  0  0  0  0  0  0  0
   -2.0918    3.5541   -0.0973 F   0  0  0  0  0  0  0  0  0  0  0  0
   -3.6804    2.2270   -0.5083 F   0  0  0  0  0  0  0  0  0  0  0  0
   -2.0301    2.3300   -1.7922 F   0  0  0  0  0  0  0  0  0  0  0  0
   -0.2577    1.3773    0.1186 C   0  0  0  0  0  0  0  0  0  0  0  0
    0.9402    1.4304   -0.0609 C   0  0  0  0  0  0  0  0  0  0  0  0
    2.4585    1.4864   -0.3124 C   0  0  0  0  0  0  0  0  0  0  0  0
    2.8897    0.5251   -1.3840 C   0  0  0  0  0  0  0  0  0  0  0  0
    2.7901    2.0018   -1.6843 C   0  0  0  0  0  0  0  0  0  0  0  0
   -2.0495    1.5184    1.6406 O   0  0  0  0  0  0  0  0  0  0  0  0
   -3.7907   -1.1627    2.2650 H   0  0  0  0  0  0  0  0  0  0  0  0
   -3.8851   -2.7905    0.7270 H   0  0  0  0  0  0  0  0  0  0  0  0
   -3.2205   -3.5541   -1.4862 H   0  0  0  0  0  0  0  0  0  0  0  0
   -1.1367    0.0807   -2.1013 H   0  0  0  0  0  0  0  0  0  0  0  0
    2.9957    1.7084    0.6044 H   0  0  0  0  0  0  0  0  0  0  0  0
    3.8851    0.0937   -1.2890 H   0  0  0  0  0  0  0  0  0  0  0  0
    2.1424   -0.1318   -1.8269 H   0  0  0  0  0  0  0  0  0  0  0  0
    1.9761    2.3325   -2.3277 H   0  0  0  0  0  0  0  0  0  0  0  0
    3.7187    2.5606   -1.7908 H   0  0  0  0  0  0  0  0  0  0  0  0
  1  2  2  0      
  2  3  1  0      
 21  2  1  0      
  3  4  1  0      
  3 22  1  0      
  4  5  1  0      
  4 10  2  0      
  5  6  2  0      
  5 23  1  0      
  6  7  1  0      
  6 24  1  0      
  7  8  1  0      
  7  9  2  0      
  9 10  1  0      
  9 25  1  0      
 11 10  1  0      
 11 12  1  0      
 11 16  1  0      
 11 21  1  0      
 12 13  1  0      
 12 14  1  0      
 12 15  1  0      
 16 17  3  0      
 17 18  1  0      
 18 19  1  0      
 18 20  1  0      
 18 26  1  0      
 19 20  1  0      
 19 27  1  0      
 19 28  1  0      
 20 29  1  0      
 20 30  1  0      
M  END
