
  Chem3D Core 14.008171522133D

 58 61  0  0  0  0  0  0  0  0999 V2000
   -5.1649   -1.6974   -4.1570 F   0  0  0  0  0  0  0  0  0  0  0  0
   -5.3143    0.4079   -4.4562 F   0  0  0  0  0  0  0  0  0  0  0  0
   -5.4421   -0.3946   -2.4859 F   0  0  0  0  0  0  0  0  0  0  0  0
    0.8770   -2.0969   -4.4701 F   0  0  0  0  0  0  0  0  0  0  0  0
    0.1524   -0.9973   -6.1466 F   0  0  0  0  0  0  0  0  0  0  0  0
   -0.7940   -2.8243   -5.5848 F   0  0  0  0  0  0  0  0  0  0  0  0
   -0.2739    2.8166    6.0130 F   0  0  0  0  0  0  0  0  0  0  0  0
   -0.3651    0.5213   -0.1865 O   0  0  0  0  0  0  0  0  0  0  0  0
   -1.5025   -1.4625   -0.4006 O   0  0  0  0  0  0  0  0  0  0  0  0
    4.5907   -2.8648    4.4382 O   0  0  0  0  0  0  0  0  0  0  0  0
    0.3716   -1.6512    1.7407 N   0  0  0  0  0  0  0  0  0  0  0  0
    2.9877   -1.8535    3.2782 N   0  0  0  0  0  0  0  0  0  0  0  0
    3.6965   -2.1124    1.3193 N   0  0  0  0  0  0  0  0  0  0  0  0
    4.5823   -2.6827    2.1682 N   0  0  0  0  0  0  0  0  0  0  0  0
   -0.8200   -0.8105    1.8152 C   0  0  0  0  0  0  0  0  0  0  0  0
   -1.2929   -0.3419    0.4355 C   0  0  0  0  0  0  0  0  0  0  0  0
   -1.4635    0.5075   -2.3852 C   0  0  0  0  0  0  0  0  0  0  0  0
   -3.3265   -0.3444   -3.5408 C   0  0  0  0  0  0  0  0  0  0  0  0
   -1.1518   -0.9157   -4.2344 C   0  0  0  0  0  0  0  0  0  0  0  0
   -0.8484    1.3162   -1.2539 C   0  0  0  0  0  0  0  0  0  0  0  0
   -0.6849    0.2093    2.9420 C   0  0  0  0  0  0  0  0  0  0  0  0
   -0.6639   -0.1604   -3.2356 C   0  0  0  0  0  0  0  0  0  0  0  0
   -2.7925    0.3954   -2.5531 C   0  0  0  0  0  0  0  0  0  0  0  0
   -2.4876   -1.0221   -4.3443 C   0  0  0  0  0  0  0  0  0  0  0  0
   -4.8250   -0.5224   -3.6505 C   0  0  0  0  0  0  0  0  0  0  0  0
   -0.2234   -1.7289   -5.1086 C   0  0  0  0  0  0  0  0  0  0  0  0
    1.5979   -0.9319    1.4172 C   0  0  0  0  0  0  0  0  0  0  0  0
    0.1235   -2.7604    0.8345 C   0  0  0  0  0  0  0  0  0  0  0  0
    2.7701   -1.6372    2.0430 C   0  0  0  0  0  0  0  0  0  0  0  0
   -0.3830   -2.3011   -0.5286 C   0  0  0  0  0  0  0  0  0  0  0  0
   -0.2425   -0.1912    4.1505 C   0  0  0  0  0  0  0  0  0  0  0  0
   -1.0025    1.5090    2.8061 C   0  0  0  0  0  0  0  0  0  0  0  0
   -1.6694    2.5136   -0.7684 C   0  0  0  0  0  0  0  0  0  0  0  0
   -0.1003    0.6681    5.1712 C   0  0  0  0  0  0  0  0  0  0  0  0
   -0.8656    2.3773    3.8203 C   0  0  0  0  0  0  0  0  0  0  0  0
   -0.4091    1.9631    5.0112 C   0  0  0  0  0  0  0  0  0  0  0  0
    4.0748   -2.4885    3.4176 C   0  0  0  0  0  0  0  0  0  0  0  0
    2.3609   -1.5591    4.0614 H   0  0  0  0  0  0  0  0  0  0  0  0
    5.4421   -3.1603    1.9660 H   0  0  0  0  0  0  0  0  0  0  0  0
   -1.6543   -1.4602    2.1954 H   0  0  0  0  0  0  0  0  0  0  0  0
   -2.2755    0.1705    0.5371 H   0  0  0  0  0  0  0  0  0  0  0  0
    0.0736    1.7860   -1.6872 H   0  0  0  0  0  0  0  0  0  0  0  0
    0.4272   -0.0986   -3.0937 H   0  0  0  0  0  0  0  0  0  0  0  0
   -3.4698    0.9068   -1.8538 H   0  0  0  0  0  0  0  0  0  0  0  0
   -2.9082   -1.6779   -5.1228 H   0  0  0  0  0  0  0  0  0  0  0  0
    1.6009    0.0894    1.8638 H   0  0  0  0  0  0  0  0  0  0  0  0
    1.7547   -0.7998    0.3252 H   0  0  0  0  0  0  0  0  0  0  0  0
    1.0402   -3.3848    0.7154 H   0  0  0  0  0  0  0  0  0  0  0  0
   -0.6414   -3.4378    1.2868 H   0  0  0  0  0  0  0  0  0  0  0  0
   -0.7023   -3.1811   -1.1348 H   0  0  0  0  0  0  0  0  0  0  0  0
    0.4059   -1.7910   -1.1220 H   0  0  0  0  0  0  0  0  0  0  0  0
    0.0133   -1.2499    4.3223 H   0  0  0  0  0  0  0  0  0  0  0  0
   -1.3888    1.8940    1.8542 H   0  0  0  0  0  0  0  0  0  0  0  0
   -1.9599    3.1654   -1.6246 H   0  0  0  0  0  0  0  0  0  0  0  0
   -1.0756    3.1494   -0.0722 H   0  0  0  0  0  0  0  0  0  0  0  0
   -2.6039    2.2304   -0.2381 H   0  0  0  0  0  0  0  0  0  0  0  0
    0.2685    0.3094    6.1466 H   0  0  0  0  0  0  0  0  0  0  0  0
   -1.1324    3.4378    3.6766 H   0  0  0  0  0  0  0  0  0  0  0  0
  1 25  1  0      
  2 25  1  0      
  3 25  1  0      
  4 26  1  0      
  5 26  1  0      
  6 26  1  0      
  7 36  1  0      
 16  8  1  0      
  8 20  1  0      
 16  9  1  0      
  9 30  1  0      
 10 37  2  0      
 11 15  1  0      
 11 27  1  0      
 11 28  1  0      
 29 12  1  0      
 12 37  1  0      
 12 38  1  0      
 14 13  1  0      
 13 29  2  0      
 14 37  1  0      
 14 39  1  0      
 15 16  1  0      
 15 21  1  0      
 15 40  1  0      
 16 41  1  0      
 17 20  1  0      
 17 22  1  0      
 17 23  2  0      
 18 23  1  0      
 24 18  2  0      
 18 25  1  0      
 22 19  2  0      
 19 24  1  0      
 19 26  1  0      
 20 33  1  0      
 20 42  1  0      
 21 31  1  0      
 21 32  2  0      
 22 43  1  0      
 23 44  1  0      
 24 45  1  0      
 27 29  1  0      
 27 46  1  0      
 27 47  1  0      
 30 28  1  0      
 28 48  1  0      
 28 49  1  0      
 30 50  1  0      
 30 51  1  0      
 31 34  2  0      
 31 52  1  0      
 35 32  1  0      
 32 53  1  0      
 33 54  1  0      
 33 55  1  0      
 33 56  1  0      
 34 36  1  0      
 34 57  1  0      
 36 35  2  0      
 35 58  1  0      
M  END
