
  Chem3D Core 15.001271611313D

 63 65  0  0  0  0  0  0  0  0999 V2000
   -1.6888    0.9715    1.8095 O   0  0  0  0  0  0  0  0  0  0  0  0
   -2.1218    1.9092    1.1839 C   0  0  0  0  0  0  0  0  0  0  0  0
   -3.4571    2.0938    0.9808 O   0  0  0  0  0  0  0  0  0  0  0  0
   -4.3240    1.0638    1.3959 C   0  0  0  0  0  0  0  0  0  0  0  0
   -1.2142    2.7613    0.6278 N   0  0  0  0  0  0  0  0  0  0  0  0
   -1.5636    3.9176   -0.2112 C   0  0  0  0  0  0  0  0  0  0  0  0
   -0.8867    5.1692    0.3702 C   0  0  0  0  0  0  0  0  0  0  0  0
   -1.1292    3.7031   -1.6764 C   0  0  0  0  0  0  0  0  0  0  0  0
   -1.8303    2.5726   -2.3303 N   0  0  0  0  0  0  0  0  0  0  0  0
   -1.5581    1.3455   -2.1325 C   0  0  0  0  0  0  0  0  0  0  0  0
   -2.2377    0.4638   -2.7417 N   0  0  0  0  0  0  0  0  0  0  0  0
   -1.9689   -0.7528   -2.5348 C   0  0  0  0  0  0  0  0  0  0  0  0
   -1.0255   -1.1320   -1.6626 C   0  0  0  0  0  0  0  0  0  0  0  0
   -0.3633   -0.1694   -1.0002 C   0  0  0  0  0  0  0  0  0  0  0  0
    0.6312   -0.3785   -0.1131 C   0  0  0  0  0  0  0  0  0  0  0  0
    1.5139    0.5967    0.1658 C   0  0  0  0  0  0  0  0  0  0  0  0
    2.4057    0.0599    0.8834 N   0  0  0  0  0  0  0  0  0  0  0  0
    3.5548    0.8631    1.3560 C   0  0  0  0  0  0  0  0  0  0  0  0
    4.4437    1.3424    0.1984 C   0  0  0  0  0  0  0  0  0  0  0  0
    3.1143    2.0276    2.2571 C   0  0  0  0  0  0  0  0  0  0  0  0
    2.1833   -1.1295    1.1088 N   0  0  0  0  0  0  0  0  0  0  0  0
    1.0575   -1.4447    0.6057 C   0  0  0  0  0  0  0  0  0  0  0  0
    0.5231   -2.6540    0.9018 C   0  0  0  0  0  0  0  0  0  0  0  0
    1.3233   -3.6410    1.3613 C   0  0  0  0  0  0  0  0  0  0  0  0
    0.8477   -4.8445    1.7149 C   0  0  0  0  0  0  0  0  0  0  0  0
    1.9220   -6.0807    2.2712 Cl  0  0  0  0  0  0  0  0  0  0  0  0
   -0.4677   -5.0894    1.6480 C   0  0  0  0  0  0  0  0  0  0  0  0
   -1.3047   -4.1246    1.2309 C   0  0  0  0  0  0  0  0  0  0  0  0
   -2.5540   -4.3866    1.2151 N   0  0  0  0  0  0  0  0  0  0  0  0
   -3.3896   -4.3529   -0.2554 S   0  0  0  0  0  0  0  0  0  0  0  0
   -4.5552   -5.2333   -0.3104 O   0  0  0  0  0  0  0  0  0  0  0  0
   -4.4499   -2.8568   -0.4446 C   0  0  0  0  0  0  0  0  0  0  0  0
   -2.6238   -4.0694   -1.4638 O   0  0  0  0  0  0  0  0  0  0  0  0
   -0.8011   -2.9255    0.8676 C   0  0  0  0  0  0  0  0  0  0  0  0
   -1.6763   -1.9614    0.6337 F   0  0  0  0  0  0  0  0  0  0  0  0
   -0.6328    1.0251   -1.3254 N   0  0  0  0  0  0  0  0  0  0  0  0
   -5.3575    1.3408    1.0897 H   0  0  0  0  0  0  0  0  0  0  0  0
   -4.0503    0.1073    0.8966 H   0  0  0  0  0  0  0  0  0  0  0  0
   -4.2948    0.9608    2.5037 H   0  0  0  0  0  0  0  0  0  0  0  0
   -0.2378    2.4946    0.7550 H   0  0  0  0  0  0  0  0  0  0  0  0
   -2.6665    4.0936   -0.1991 H   0  0  0  0  0  0  0  0  0  0  0  0
   -1.1385    6.0807   -0.2186 H   0  0  0  0  0  0  0  0  0  0  0  0
   -1.2137    5.3461    1.4207 H   0  0  0  0  0  0  0  0  0  0  0  0
    0.2217    5.0578    0.3744 H   0  0  0  0  0  0  0  0  0  0  0  0
   -1.3617    4.6187   -2.2694 H   0  0  0  0  0  0  0  0  0  0  0  0
   -0.0249    3.5637   -1.7375 H   0  0  0  0  0  0  0  0  0  0  0  0
   -2.6102    2.7792   -3.0032 H   0  0  0  0  0  0  0  0  0  0  0  0
   -2.5478   -1.4998   -3.1027 H   0  0  0  0  0  0  0  0  0  0  0  0
   -0.8012   -2.2002   -1.5415 H   0  0  0  0  0  0  0  0  0  0  0  0
    1.5639    1.6387   -0.1675 H   0  0  0  0  0  0  0  0  0  0  0  0
    4.1749    0.1750    1.9864 H   0  0  0  0  0  0  0  0  0  0  0  0
    5.3575    1.8523    0.5806 H   0  0  0  0  0  0  0  0  0  0  0  0
    4.7739    0.4841   -0.4308 H   0  0  0  0  0  0  0  0  0  0  0  0
    3.9128    2.0644   -0.4615 H   0  0  0  0  0  0  0  0  0  0  0  0
    3.9957    2.5519    2.6920 H   0  0  0  0  0  0  0  0  0  0  0  0
    2.4882    1.6608    3.1027 H   0  0  0  0  0  0  0  0  0  0  0  0
    2.5207    2.7859    1.6990 H   0  0  0  0  0  0  0  0  0  0  0  0
    2.4144   -3.4997    1.4423 H   0  0  0  0  0  0  0  0  0  0  0  0
   -0.8525   -6.0781    1.9514 H   0  0  0  0  0  0  0  0  0  0  0  0
   -2.6986   -5.3280    1.6660 H   0  0  0  0  0  0  0  0  0  0  0  0
   -5.0847   -2.9287   -1.3571 H   0  0  0  0  0  0  0  0  0  0  0  0
   -3.8298   -1.9382   -0.5293 H   0  0  0  0  0  0  0  0  0  0  0  0
   -5.1056   -2.7474    0.4489 H   0  0  0  0  0  0  0  0  0  0  0  0
  1  2  2  0      
  2  3  1  0      
  2  5  1  0      
  3  4  1  0      
  4 37  1  0      
  4 38  1  0      
  4 39  1  0      
  5  6  1  0      
  5 40  1  0      
  6  7  1  0      
  6  8  1  0      
  6 41  1  0      
  7 42  1  0      
  7 43  1  0      
  7 44  1  0      
  8  9  1  0      
  8 45  1  0      
  8 46  1  0      
  9 10  1  0      
  9 47  1  0      
 11 10  2  0      
 10 36  1  0      
 12 11  1  0      
 13 12  2  0      
 12 48  1  0      
 14 13  1  0      
 13 49  1  0      
 14 15  1  0      
 14 36  2  0      
 15 16  2  0      
 22 15  1  0      
 16 17  1  0      
 16 50  1  0      
 17 18  1  0      
 17 21  1  0      
 18 19  1  0      
 18 20  1  0      
 18 51  1  0      
 19 52  1  0      
 19 53  1  0      
 19 54  1  0      
 20 55  1  0      
 20 56  1  0      
 20 57  1  0      
 22 21  2  0      
 22 23  1  0      
 23 24  1  0      
 23 34  2  0      
 24 25  2  0      
 24 58  1  0      
 25 26  1  0      
 25 27  1  0      
 27 28  2  0      
 27 59  1  0      
 28 29  1  0      
 28 34  1  0      
 29 30  1  0      
 29 60  1  0      
 30 31  2  0      
 30 32  1  0      
 30 33  2  0      
 32 61  1  0      
 32 62  1  0      
 32 63  1  0      
 34 35  1  0      
M  END
