
  Chem3D Core 15.003241614403D

 75 80  0  0  0  0  0  0  0  0999 V2000
   -2.2439    7.3462   -1.5424 F   0  0  0  0  0  0  0  0  0  0  0  0
   -6.5469    6.0211   -2.5967 F   0  0  0  0  0  0  0  0  0  0  0  0
    3.6057    1.9467   -1.4808 O   0  0  0  0  0  0  0  0  0  0  0  0
    0.3410   -4.1665   -4.9155 O   0  0  0  0  0  0  0  0  0  0  0  0
    1.5413    1.2934   -1.6718 N   0  0  0  0  0  0  0  0  0  0  0  0
    0.1298   -0.1294   -0.4058 N   0  0  0  0  0  0  0  0  0  0  0  0
   -1.0941   -0.2893   -0.3589 N   0  0  0  0  0  0  0  0  0  0  0  0
    4.2777   -3.4612    1.3359 N   0  0  0  0  0  0  0  0  0  0  0  0
    1.8800   -1.4540   -2.0655 N   0  0  0  0  0  0  0  0  0  0  0  0
    4.6115   -5.6469    3.1378 N   0  0  0  0  0  0  0  0  0  0  0  0
   -0.8011    1.1816   -1.7732 C   0  0  0  0  0  0  0  0  0  0  0  0
    0.3709    0.7665   -1.2733 C   0  0  0  0  0  0  0  0  0  0  0  0
   -1.7359    0.4601   -1.1510 C   0  0  0  0  0  0  0  0  0  0  0  0
    3.1812   -0.1457   -0.7424 C   0  0  0  0  0  0  0  0  0  0  0  0
    2.6734   -1.3537   -1.0706 C   0  0  0  0  0  0  0  0  0  0  0  0
    2.8386    1.0210   -1.3620 C   0  0  0  0  0  0  0  0  0  0  0  0
   -1.1291    2.0941   -2.6942 C   0  0  0  0  0  0  0  0  0  0  0  0
   -2.4340    2.2674   -2.9852 C   0  0  0  0  0  0  0  0  0  0  0  0
    3.9423   -2.4124    0.6715 C   0  0  0  0  0  0  0  0  0  0  0  0
   -3.0352    0.6126   -1.4169 C   0  0  0  0  0  0  0  0  0  0  0  0
    3.0540   -2.4274   -0.3479 C   0  0  0  0  0  0  0  0  0  0  0  0
    4.0896   -0.0932    0.2463 C   0  0  0  0  0  0  0  0  0  0  0  0
   -3.3646    1.5285   -2.3444 C   0  0  0  0  0  0  0  0  0  0  0  0
    4.4474   -1.1887    0.9317 C   0  0  0  0  0  0  0  0  0  0  0  0
   -2.8618    3.2894   -4.0167 C   0  0  0  0  0  0  0  0  0  0  0  0
   -3.4200    4.5127   -3.3232 C   0  0  0  0  0  0  0  0  0  0  0  0
    1.2147   -2.6660   -2.6074 C   0  0  0  0  0  0  0  0  0  0  0  0
    5.2214   -3.3324    2.4781 C   0  0  0  0  0  0  0  0  0  0  0  0
    3.6393   -4.7692    1.0278 C   0  0  0  0  0  0  0  0  0  0  0  0
   -4.7450    4.7363   -3.2652 C   0  0  0  0  0  0  0  0  0  0  0  0
   -2.5943    5.3989   -2.7385 C   0  0  0  0  0  0  0  0  0  0  0  0
    5.6782   -4.6605    3.1032 C   0  0  0  0  0  0  0  0  0  0  0  0
    4.2255   -5.9773    1.7762 C   0  0  0  0  0  0  0  0  0  0  0  0
   -3.0725    6.4858   -2.1130 C   0  0  0  0  0  0  0  0  0  0  0  0
   -5.2395    5.8184   -2.6439 C   0  0  0  0  0  0  0  0  0  0  0  0
    0.0330   -2.2408   -3.4938 C   0  0  0  0  0  0  0  0  0  0  0  0
    2.1616   -3.5108   -3.4704 C   0  0  0  0  0  0  0  0  0  0  0  0
   -4.3980    6.6915   -2.0686 C   0  0  0  0  0  0  0  0  0  0  0  0
   -0.6051   -3.4621   -4.1504 C   0  0  0  0  0  0  0  0  0  0  0  0
    1.3974   -4.6571   -4.1280 C   0  0  0  0  0  0  0  0  0  0  0  0
    5.0291   -6.8385    3.8627 C   0  0  0  0  0  0  0  0  0  0  0  0
    1.3870    2.0848   -2.2777 H   0  0  0  0  0  0  0  0  0  0  0  0
   -1.5137   -0.9888    0.2932 H   0  0  0  0  0  0  0  0  0  0  0  0
    1.6911   -0.5690   -2.5950 H   0  0  0  0  0  0  0  0  0  0  0  0
   -0.3495    2.6841   -3.2000 H   0  0  0  0  0  0  0  0  0  0  0  0
   -3.7975    0.0121   -0.8965 H   0  0  0  0  0  0  0  0  0  0  0  0
    2.6011   -3.3821   -0.6368 H   0  0  0  0  0  0  0  0  0  0  0  0
    4.5422    0.8666    0.5525 H   0  0  0  0  0  0  0  0  0  0  0  0
   -4.4313    1.6762   -2.5827 H   0  0  0  0  0  0  0  0  0  0  0  0
    5.1747   -1.0009    1.7366 H   0  0  0  0  0  0  0  0  0  0  0  0
   -2.0105    3.5895   -4.6699 H   0  0  0  0  0  0  0  0  0  0  0  0
   -3.6108    2.8332   -4.7040 H   0  0  0  0  0  0  0  0  0  0  0  0
    0.7925   -3.2637   -1.7651 H   0  0  0  0  0  0  0  0  0  0  0  0
    6.1590   -2.8092    2.1709 H   0  0  0  0  0  0  0  0  0  0  0  0
    4.7117   -2.7457    3.2820 H   0  0  0  0  0  0  0  0  0  0  0  0
    3.7324   -5.0198   -0.0568 H   0  0  0  0  0  0  0  0  0  0  0  0
    2.5583   -4.6996    1.3048 H   0  0  0  0  0  0  0  0  0  0  0  0
   -5.4444    4.0228   -3.7307 H   0  0  0  0  0  0  0  0  0  0  0  0
   -1.5048    5.2333   -2.7688 H   0  0  0  0  0  0  0  0  0  0  0  0
    6.5469   -5.0612    2.5261 H   0  0  0  0  0  0  0  0  0  0  0  0
    6.0598   -4.4559    4.1329 H   0  0  0  0  0  0  0  0  0  0  0  0
    3.4704   -6.8004    1.7690 H   0  0  0  0  0  0  0  0  0  0  0  0
    5.1103   -6.3657    1.2153 H   0  0  0  0  0  0  0  0  0  0  0  0
   -0.7293   -1.6974   -2.8878 H   0  0  0  0  0  0  0  0  0  0  0  0
    0.3878   -1.5368   -4.2838 H   0  0  0  0  0  0  0  0  0  0  0  0
    2.6159   -2.8659   -4.2598 H   0  0  0  0  0  0  0  0  0  0  0  0
    3.0014   -3.9196   -2.8623 H   0  0  0  0  0  0  0  0  0  0  0  0
   -4.7979    7.5813   -1.5553 H   0  0  0  0  0  0  0  0  0  0  0  0
   -1.0541   -4.1447   -3.3933 H   0  0  0  0  0  0  0  0  0  0  0  0
   -1.4207   -3.1431   -4.8407 H   0  0  0  0  0  0  0  0  0  0  0  0
    2.0746   -5.2321   -4.8021 H   0  0  0  0  0  0  0  0  0  0  0  0
    0.9973   -5.3672   -3.3687 H   0  0  0  0  0  0  0  0  0  0  0  0
    4.2003   -7.5813    3.9153 H   0  0  0  0  0  0  0  0  0  0  0  0
    5.2954   -6.5890    4.9155 H   0  0  0  0  0  0  0  0  0  0  0  0
    5.9088   -7.3304    3.3877 H   0  0  0  0  0  0  0  0  0  0  0  0
  1 34  1  0      
  2 35  1  0      
  3 16  2  0      
 39  4  1  0      
 40  4  1  0      
  5 12  1  0      
  5 16  1  0      
  5 42  1  0      
  6  7  1  0      
 12  6  2  0      
  7 13  1  0      
  7 43  1  0      
  8 19  1  0      
  8 28  1  0      
  8 29  1  0      
  9 15  1  0      
  9 27  1  0      
  9 44  1  0      
 32 10  1  0      
 10 33  1  0      
 10 41  1  0      
 12 11  1  0      
 13 11  2  0      
 17 11  1  0      
 13 20  1  0      
 14 15  1  0      
 14 16  1  0      
 14 22  2  0      
 15 21  2  0      
 18 17  2  0      
 17 45  1  0      
 23 18  1  0      
 18 25  1  0      
 21 19  1  0      
 19 24  2  0      
 20 23  2  0      
 20 46  1  0      
 21 47  1  0      
 24 22  1  0      
 22 48  1  0      
 23 49  1  0      
 24 50  1  0      
 25 26  1  0      
 25 51  1  0      
 25 52  1  0      
 26 30  1  0      
 26 31  2  0      
 36 27  1  0      
 27 37  1  0      
 27 53  1  0      
 28 32  1  0      
 28 54  1  0      
 28 55  1  0      
 33 29  1  0      
 29 56  1  0      
 29 57  1  0      
 30 35  2  0      
 30 58  1  0      
 34 31  1  0      
 31 59  1  0      
 32 60  1  0      
 32 61  1  0      
 33 62  1  0      
 33 63  1  0      
 38 34  2  0      
 35 38  1  0      
 39 36  1  0      
 36 64  1  0      
 36 65  1  0      
 37 40  1  0      
 37 66  1  0      
 37 67  1  0      
 38 68  1  0      
 39 69  1  0      
 39 70  1  0      
 40 71  1  0      
 40 72  1  0      
 41 73  1  0      
 41 74  1  0      
 41 75  1  0      
M  END
