
  Chem3D Core 15.008141513343D

 73 75  0  0  0  0  0  0  0  0999 V2000
   -4.3110    1.1141    3.8349 S   0  0  0  0  0  0  0  0  0  0  0  0
   -3.3986   -1.4002   -0.9707 O   0  0  0  0  0  0  0  0  0  0  0  0
   -0.3747    2.1468   -1.7881 O   0  0  0  0  0  0  0  0  0  0  0  0
    0.3970    1.4018    0.2403 O   0  0  0  0  0  0  0  0  0  0  0  0
    3.8771    0.0980   -3.4822 O   0  0  0  0  0  0  0  0  0  0  0  0
    3.0732    1.7379    0.5529 O   0  0  0  0  0  0  0  0  0  0  0  0
    3.2940   -2.4129   -0.4479 O   0  0  0  0  0  0  0  0  0  0  0  0
   -4.0099    2.5261    2.0120 N   0  0  0  0  0  0  0  0  0  0  0  0
   -2.7270   -0.7920   -2.2153 C   0  0  0  0  0  0  0  0  0  0  0  0
   -2.7000   -2.1908   -2.0942 C   0  0  0  0  0  0  0  0  0  0  0  0
   -1.4864    0.0336   -1.8951 C   0  0  0  0  0  0  0  0  0  0  0  0
   -1.4912   -2.9330   -1.5267 C   0  0  0  0  0  0  0  0  0  0  0  0
   -1.6482    1.5453   -1.6671 C   0  0  0  0  0  0  0  0  0  0  0  0
   -0.3319   -3.0579   -2.5344 C   0  0  0  0  0  0  0  0  0  0  0  0
   -2.4166    2.0256   -0.4436 C   0  0  0  0  0  0  0  0  0  0  0  0
    4.4022    0.8306   -1.2743 C   0  0  0  0  0  0  0  0  0  0  0  0
    0.5881    1.7888   -0.8904 C   0  0  0  0  0  0  0  0  0  0  0  0
    1.0523   -3.2790   -1.8889 C   0  0  0  0  0  0  0  0  0  0  0  0
    4.3034   -0.2288   -2.3966 C   0  0  0  0  0  0  0  0  0  0  0  0
    2.9942    1.0504   -0.6766 C   0  0  0  0  0  0  0  0  0  0  0  0
   -2.6340    1.2366    0.6256 C   0  0  0  0  0  0  0  0  0  0  0  0
    4.7034   -1.6989   -2.2075 C   0  0  0  0  0  0  0  0  0  0  0  0
    2.2015   -2.5034   -2.5853 C   0  0  0  0  0  0  0  0  0  0  0  0
    3.5356   -2.6307   -1.8206 C   0  0  0  0  0  0  0  0  0  0  0  0
    1.9697    1.8072   -1.5331 C   0  0  0  0  0  0  0  0  0  0  0  0
   -3.3504    1.4846    1.7348 C   0  0  0  0  0  0  0  0  0  0  0  0
   -2.9022    3.4531   -0.5675 C   0  0  0  0  0  0  0  0  0  0  0  0
    5.3968    0.4052   -0.1706 C   0  0  0  0  0  0  0  0  0  0  0  0
    4.9533    2.1414   -1.8813 C   0  0  0  0  0  0  0  0  0  0  0  0
   -3.4749    0.6047    2.7445 C   0  0  0  0  0  0  0  0  0  0  0  0
    5.5378   -2.2204   -3.3948 C   0  0  0  0  0  0  0  0  0  0  0  0
    2.3247   -2.9647   -4.0487 C   0  0  0  0  0  0  0  0  0  0  0  0
   -4.5545    2.3848    3.1436 C   0  0  0  0  0  0  0  0  0  0  0  0
   -5.4010    3.5024    3.6918 C   0  0  0  0  0  0  0  0  0  0  0  0
   -3.4702   -0.3309   -2.8744 H   0  0  0  0  0  0  0  0  0  0  0  0
   -3.4038   -2.7732   -2.6976 H   0  0  0  0  0  0  0  0  0  0  0  0
    2.2294    1.6531    1.0084 H   0  0  0  0  0  0  0  0  0  0  0  0
    2.8648   -3.1753   -0.0548 H   0  0  0  0  0  0  0  0  0  0  0  0
   -0.8696   -0.0518   -2.8248 H   0  0  0  0  0  0  0  0  0  0  0  0
   -0.8651   -0.4121   -1.0916 H   0  0  0  0  0  0  0  0  0  0  0  0
   -1.8106   -3.9452   -1.1845 H   0  0  0  0  0  0  0  0  0  0  0  0
   -1.1354   -2.4314   -0.5995 H   0  0  0  0  0  0  0  0  0  0  0  0
   -2.2355    1.9113   -2.5476 H   0  0  0  0  0  0  0  0  0  0  0  0
   -0.5573   -3.8679   -3.2676 H   0  0  0  0  0  0  0  0  0  0  0  0
   -0.2953   -2.1197   -3.1306 H   0  0  0  0  0  0  0  0  0  0  0  0
    0.9919   -2.9374   -0.8304 H   0  0  0  0  0  0  0  0  0  0  0  0
    1.2880   -4.3681   -1.8529 H   0  0  0  0  0  0  0  0  0  0  0  0
    2.5777    0.0472   -0.4277 H   0  0  0  0  0  0  0  0  0  0  0  0
   -2.1689    0.2389    0.5959 H   0  0  0  0  0  0  0  0  0  0  0  0
    5.4410   -1.7494   -1.3709 H   0  0  0  0  0  0  0  0  0  0  0  0
    1.9041   -1.4253   -2.5753 H   0  0  0  0  0  0  0  0  0  0  0  0
    3.8780   -3.6907   -1.8820 H   0  0  0  0  0  0  0  0  0  0  0  0
    2.2649    2.8730   -1.6663 H   0  0  0  0  0  0  0  0  0  0  0  0
    1.8909    1.3286   -2.5356 H   0  0  0  0  0  0  0  0  0  0  0  0
   -2.2240    4.0521   -1.2153 H   0  0  0  0  0  0  0  0  0  0  0  0
   -3.9176    3.4739   -1.0240 H   0  0  0  0  0  0  0  0  0  0  0  0
   -2.9156    4.0013    0.3973 H   0  0  0  0  0  0  0  0  0  0  0  0
    5.0198   -0.4535    0.4282 H   0  0  0  0  0  0  0  0  0  0  0  0
    6.3940    0.1447   -0.5922 H   0  0  0  0  0  0  0  0  0  0  0  0
    5.5867    1.2286    0.5539 H   0  0  0  0  0  0  0  0  0  0  0  0
    5.9798    1.9903   -2.2867 H   0  0  0  0  0  0  0  0  0  0  0  0
    4.3359    2.5381   -2.7163 H   0  0  0  0  0  0  0  0  0  0  0  0
    5.0113    2.9465   -1.1143 H   0  0  0  0  0  0  0  0  0  0  0  0
   -3.0129   -0.3922    2.7800 H   0  0  0  0  0  0  0  0  0  0  0  0
    5.8836   -3.2653   -3.2216 H   0  0  0  0  0  0  0  0  0  0  0  0
    4.9964   -2.2112   -4.3622 H   0  0  0  0  0  0  0  0  0  0  0  0
    6.4484   -1.5937   -3.5398 H   0  0  0  0  0  0  0  0  0  0  0  0
    2.7835   -3.9768   -4.1149 H   0  0  0  0  0  0  0  0  0  0  0  0
    2.9271   -2.2581   -4.6567 H   0  0  0  0  0  0  0  0  0  0  0  0
    1.3434   -3.0140   -4.5679 H   0  0  0  0  0  0  0  0  0  0  0  0
   -4.9896    3.8781    4.6567 H   0  0  0  0  0  0  0  0  0  0  0  0
   -5.4443    4.3681    2.9922 H   0  0  0  0  0  0  0  0  0  0  0  0
   -6.4484    3.1632    3.8628 H   0  0  0  0  0  0  0  0  0  0  0  0
 30  1  1  0      
  1 33  1  0      
  9  2  1  0      
  2 10  1  0      
  3 13  1  0      
 17  3  1  0      
  4 17  2  0      
  5 19  2  0      
 20  6  1  0      
  6 37  1  0      
 24  7  1  0      
  7 38  1  0      
 26  8  1  0      
 33  8  2  0      
  9 10  1  0      
 11  9  1  0      
  9 35  1  0      
 10 12  1  0      
 10 36  1  0      
 13 11  1  0      
 11 39  1  0      
 11 40  1  0      
 12 14  1  0      
 12 41  1  0      
 12 42  1  0      
 13 15  1  0      
 13 43  1  0      
 14 18  1  0      
 14 44  1  0      
 14 45  1  0      
 15 21  2  0      
 15 27  1  0      
 16 19  1  0      
 16 20  1  0      
 16 28  1  0      
 16 29  1  0      
 25 17  1  0      
 18 23  1  0      
 18 46  1  0      
 18 47  1  0      
 22 19  1  0      
 20 25  1  0      
 20 48  1  0      
 21 26  1  0      
 21 49  1  0      
 24 22  1  0      
 22 31  1  0      
 22 50  1  0      
 23 24  1  0      
 23 32  1  0      
 23 51  1  0      
 24 52  1  0      
 25 53  1  0      
 25 54  1  0      
 26 30  2  0      
 27 55  1  0      
 27 56  1  0      
 27 57  1  0      
 28 58  1  0      
 28 59  1  0      
 28 60  1  0      
 29 61  1  0      
 29 62  1  0      
 29 63  1  0      
 30 64  1  0      
 31 65  1  0      
 31 66  1  0      
 31 67  1  0      
 32 68  1  0      
 32 69  1  0      
 32 70  1  0      
 33 34  1  0      
 34 71  1  0      
 34 72  1  0      
 34 73  1  0      
M  END
