
  Chem3D Core 15.003291617113D

  0  0  0     0  0              0 V3000
M  V30 BEGIN CTAB
M  V30 COUNTS 76 78 0 0 0
M  V30 BEGIN ATOM
M  V30 1 S -4.284611 1.082088 3.841153 0
M  V30 2 O -3.453804 -1.328897 -1.077921 0
M  V30 3 O -0.456724 2.104992 -1.855450 0
M  V30 4 O 0.342217 1.390359 0.173678 0
M  V30 5 O 3.852825 0.105812 -3.536325 0
M  V30 6 O 3.005549 1.813526 0.466726 0
M  V30 7 O 3.289805 -2.355877 -0.447269 0
M  V30 8 N -4.038422 2.484476 2.002630 0
M  V30 9 C -2.804831 -0.847011 -2.229154 0
M  V30 10 C -2.730993 -2.285938 -2.138758 0
M  V30 11 C -1.561077 -0.012967 -1.935548 0
M  V30 12 C -1.511568 -3.000059 -1.559874 0
M  V30 13 C -3.695789 -3.111698 -2.970120 0
M  V30 14 C -1.725799 1.499144 -1.712188 0
M  V30 15 C -0.324661 -3.072344 -2.539351 0
M  V30 16 C -2.479719 1.983518 -0.480739 0
M  V30 17 C 4.352400 0.894869 -1.341568 0
M  V30 18 C 0.517899 1.767858 -0.962717 0
M  V30 19 C 1.051000 -3.230626 -1.860128 0
M  V30 20 C 4.276101 -0.190128 -2.440725 0
M  V30 21 C -2.669159 1.203576 0.600454 0
M  V30 22 C 2.941319 1.093457 -0.744802 0
M  V30 23 C 2.202850 -2.487919 -2.586756 0
M  V30 24 C 4.694357 -1.649842 -2.214683 0
M  V30 25 C 3.536253 -2.589209 -1.816575 0
M  V30 26 C 1.894172 1.800056 -1.616350 0
M  V30 27 C -3.368825 1.450834 1.720454 0
M  V30 28 C -2.982704 3.404257 -0.614789 0
M  V30 29 C 5.358422 0.514613 -0.231751 0
M  V30 30 C 4.871367 2.205748 -1.975829 0
M  V30 31 C -3.461730 0.576975 2.738883 0
M  V30 32 C 5.546494 -2.185409 -3.383105 0
M  V30 33 C 2.329690 -3.004084 -4.031208 0
M  V30 34 C -4.559749 2.343689 3.145230 0
M  V30 35 C -5.412598 3.452746 3.701009 0
M  V30 36 H -3.512244 -0.397963 -2.935121 0
M  V30 37 H 2.167211 1.712435 0.929195 0
M  V30 38 H 2.851932 -3.110715 -0.049286 0
M  V30 39 H -0.956710 -0.101164 -2.873030 0
M  V30 40 H -0.927877 -0.451727 -1.136755 0
M  V30 41 H -1.801328 -4.024041 -1.229247 0
M  V30 42 H -1.204572 -2.489107 -0.620387 0
M  V30 43 H -4.515359 -2.503795 -3.413271 0
M  V30 44 H -3.143353 -3.605843 -3.800794 0
M  V30 45 H -4.159328 -3.898565 -2.333277 0
M  V30 46 H -2.326902 1.857541 -2.586661 0
M  V30 47 H -0.495564 -3.895628 -3.272395 0
M  V30 48 H -0.313700 -2.135997 -3.139118 0
M  V30 49 H 0.968169 -2.814022 -0.829871 0
M  V30 50 H 1.297100 -4.312032 -1.746893 0
M  V30 51 H -2.191585 0.211489 0.572588 0
M  V30 52 H 2.552153 0.086525 -0.468941 0
M  V30 53 H 1.905818 -1.410322 -2.620463 0
M  V30 54 H 5.425445 -1.671805 -1.371243 0
M  V30 55 H 3.890185 -3.646211 -1.861194 0
M  V30 56 H 2.163382 2.868138 -1.782376 0
M  V30 57 H 1.819934 1.290489 -2.603851 0
M  V30 58 H -2.297270 4.011036 -1.247808 0
M  V30 59 H -3.987629 3.410568 -1.094279 0
M  V30 60 H -3.027656 3.955632 0.346759 0
M  V30 61 H 5.000135 -0.337353 0.387958 0
M  V30 62 H 6.359051 0.263746 -0.651199 0
M  V30 63 H 5.533888 1.357896 0.473211 0
M  V30 64 H 5.900293 2.070676 -2.380765 0
M  V30 65 H 4.242878 2.571547 -2.816612 0
M  V30 66 H 4.912241 3.027145 -1.225115 0
M  V30 67 H -2.984416 -0.412780 2.773296 0
M  V30 68 H 5.902489 -3.222508 -3.185792 0
M  V30 69 H 5.015039 -2.200961 -4.355855 0
M  V30 70 H 6.451324 -1.551170 -3.531641 0
M  V30 71 H 2.758071 -4.031304 -4.056251 0
M  V30 72 H 2.961602 -2.338577 -4.655011 0
M  V30 73 H 1.354376 -3.038811 -4.562493 0
M  V30 74 H -4.988672 3.842154 4.655011 0
M  V30 75 H -5.482379 4.312032 2.995690 0
M  V30 76 H -6.451324 3.099084 3.894565 0
M  V30 END ATOM
M  V30 BEGIN BOND
M  V30 1 1 31 1
M  V30 2 1 1 34
M  V30 3 1 9 2
M  V30 4 1 2 10
M  V30 5 1 3 14
M  V30 6 1 18 3
M  V30 7 2 4 18
M  V30 8 2 5 20
M  V30 9 1 22 6
M  V30 10 1 6 37
M  V30 11 1 25 7
M  V30 12 1 7 38
M  V30 13 1 27 8
M  V30 14 2 34 8
M  V30 15 1 9 10
M  V30 16 1 11 9
M  V30 17 1 9 36
M  V30 18 1 10 12
M  V30 19 1 10 13
M  V30 20 1 14 11
M  V30 21 1 11 39
M  V30 22 1 11 40
M  V30 23 1 12 15
M  V30 24 1 12 41
M  V30 25 1 12 42
M  V30 26 1 13 43
M  V30 27 1 13 44
M  V30 28 1 13 45
M  V30 29 1 14 16
M  V30 30 1 14 46
M  V30 31 1 15 19
M  V30 32 1 15 47
M  V30 33 1 15 48
M  V30 34 2 16 21
M  V30 35 1 16 28
M  V30 36 1 17 20
M  V30 37 1 17 22
M  V30 38 1 17 29
M  V30 39 1 17 30
M  V30 40 1 26 18
M  V30 41 1 19 23
M  V30 42 1 19 49
M  V30 43 1 19 50
M  V30 44 1 24 20
M  V30 45 1 21 27
M  V30 46 1 21 51
M  V30 47 1 22 26
M  V30 48 1 22 52
M  V30 49 1 23 25
M  V30 50 1 23 33
M  V30 51 1 23 53
M  V30 52 1 25 24
M  V30 53 1 24 32
M  V30 54 1 24 54
M  V30 55 1 25 55
M  V30 56 1 26 56
M  V30 57 1 26 57
M  V30 58 2 27 31
M  V30 59 1 28 58
M  V30 60 1 28 59
M  V30 61 1 28 60
M  V30 62 1 29 61
M  V30 63 1 29 62
M  V30 64 1 29 63
M  V30 65 1 30 64
M  V30 66 1 30 65
M  V30 67 1 30 66
M  V30 68 1 31 67
M  V30 69 1 32 68
M  V30 70 1 32 69
M  V30 71 1 32 70
M  V30 72 1 33 71
M  V30 73 1 33 72
M  V30 74 1 33 73
M  V30 75 1 34 35
M  V30 76 1 35 74
M  V30 77 1 35 75
M  V30 78 1 35 76
M  V30 END BOND
M  V30 END CTAB
M  END
