
  Chem3D Core 15.003241614403D

 89 89  0  0  0  0  0  0  0  0999 V2000
    0.0113    0.4893   -3.4466 O   0  0  0  0  0  0  0  0  0  0  0  0
   -0.5424   -3.1484   -3.4267 O   0  0  0  0  0  0  0  0  0  0  0  0
   -3.7603    0.9652   -2.7530 O   0  0  0  0  0  0  0  0  0  0  0  0
   -4.5607   -0.6666    0.2050 O   0  0  0  0  0  0  0  0  0  0  0  0
   -1.1550    3.9657   -0.0866 O   0  0  0  0  0  0  0  0  0  0  0  0
    0.5897    0.1259    0.8181 O   0  0  0  0  0  0  0  0  0  0  0  0
    4.4026   -0.2743   -1.4213 O   0  0  0  0  0  0  0  0  0  0  0  0
   -2.5416   -0.8730   -2.4128 N   0  0  0  0  0  0  0  0  0  0  0  0
    0.2806    2.2307    1.5792 N   0  0  0  0  0  0  0  0  0  0  0  0
   -2.3789    2.1841   -0.6705 N   0  0  0  0  0  0  0  0  0  0  0  0
    3.1154    1.0394   -0.0980 N   0  0  0  0  0  0  0  0  0  0  0  0
    0.4239   -1.0498   -3.5914 C   0  0  0  0  0  0  0  0  0  0  0  0
   -0.0397   -0.2156   -4.6605 C   0  0  0  0  0  0  0  0  0  0  0  0
   -1.3976   -1.5808   -1.8160 C   0  0  0  0  0  0  0  0  0  0  0  0
   -0.5037   -2.0189   -2.9863 C   0  0  0  0  0  0  0  0  0  0  0  0
   -1.8542   -2.7225   -0.8901 C   0  0  0  0  0  0  0  0  0  0  0  0
    1.9090   -1.2834   -3.3983 C   0  0  0  0  0  0  0  0  0  0  0  0
   -0.8315   -3.1267    0.1929 C   0  0  0  0  0  0  0  0  0  0  0  0
   -1.1893    2.2191    1.5251 C   0  0  0  0  0  0  0  0  0  0  0  0
   -1.7567    2.9698    2.7583 C   0  0  0  0  0  0  0  0  0  0  0  0
   -2.8261    0.7896   -0.5647 C   0  0  0  0  0  0  0  0  0  0  0  0
    2.5679    1.4170    1.2149 C   0  0  0  0  0  0  0  0  0  0  0  0
   -3.0760    0.3184   -2.0023 C   0  0  0  0  0  0  0  0  0  0  0  0
    3.0752    2.8052    1.6876 C   0  0  0  0  0  0  0  0  0  0  0  0
   -1.4294   -4.2100    1.1092 C   0  0  0  0  0  0  0  0  0  0  0  0
    0.5075   -3.6115   -0.3842 C   0  0  0  0  0  0  0  0  0  0  0  0
   -1.5658    2.8675    0.1919 C   0  0  0  0  0  0  0  0  0  0  0  0
   -4.1034    0.6622    0.2814 C   0  0  0  0  0  0  0  0  0  0  0  0
   -1.9537    2.0346    3.9735 C   0  0  0  0  0  0  0  0  0  0  0  0
    1.0541    1.1754    1.1880 C   0  0  0  0  0  0  0  0  0  0  0  0
    4.5980    2.9848    1.4610 C   0  0  0  0  0  0  0  0  0  0  0  0
   -3.0901    3.6915    2.4817 C   0  0  0  0  0  0  0  0  0  0  0  0
    2.7744    3.0734    3.1774 C   0  0  0  0  0  0  0  0  0  0  0  0
   -0.6831    1.3296    4.4639 C   0  0  0  0  0  0  0  0  0  0  0  0
   -5.2489    1.5930   -0.1084 C   0  0  0  0  0  0  0  0  0  0  0  0
    4.9784    4.4390    1.1444 C   0  0  0  0  0  0  0  0  0  0  0  0
    2.7190    1.9172   -1.1965 C   0  0  0  0  0  0  0  0  0  0  0  0
    3.9353   -0.0456   -0.3319 C   0  0  0  0  0  0  0  0  0  0  0  0
    4.2317   -0.9574    0.8493 C   0  0  0  0  0  0  0  0  0  0  0  0
   -2.9154   -1.2263   -3.2943 H   0  0  0  0  0  0  0  0  0  0  0  0
    0.7274    3.1229    1.7870 H   0  0  0  0  0  0  0  0  0  0  0  0
   -2.6812    2.6930   -1.5030 H   0  0  0  0  0  0  0  0  0  0  0  0
   -5.4073   -0.7585    0.6455 H   0  0  0  0  0  0  0  0  0  0  0  0
   -1.0731   -0.3005   -4.9953 H   0  0  0  0  0  0  0  0  0  0  0  0
    0.6765    0.2061   -5.3662 H   0  0  0  0  0  0  0  0  0  0  0  0
   -0.7451   -0.8816   -1.2471 H   0  0  0  0  0  0  0  0  0  0  0  0
   -2.7701   -2.3801   -0.3546 H   0  0  0  0  0  0  0  0  0  0  0  0
   -2.1736   -3.6110   -1.4795 H   0  0  0  0  0  0  0  0  0  0  0  0
    2.1811   -2.3184   -3.7051 H   0  0  0  0  0  0  0  0  0  0  0  0
    2.5366   -0.5708   -3.9771 H   0  0  0  0  0  0  0  0  0  0  0  0
    2.1482   -1.1663   -2.3186 H   0  0  0  0  0  0  0  0  0  0  0  0
   -0.6260   -2.2304    0.8313 H   0  0  0  0  0  0  0  0  0  0  0  0
   -1.5700    1.1814    1.6001 H   0  0  0  0  0  0  0  0  0  0  0  0
   -1.0247    3.7664    3.0464 H   0  0  0  0  0  0  0  0  0  0  0  0
   -2.0383    0.1615   -0.1072 H   0  0  0  0  0  0  0  0  0  0  0  0
    2.9138    0.7162    2.0077 H   0  0  0  0  0  0  0  0  0  0  0  0
    2.5518    3.5851    1.0825 H   0  0  0  0  0  0  0  0  0  0  0  0
   -0.7262   -4.4772    1.9309 H   0  0  0  0  0  0  0  0  0  0  0  0
   -2.3747   -3.8619    1.5851 H   0  0  0  0  0  0  0  0  0  0  0  0
   -1.6548   -5.1385    0.5376 H   0  0  0  0  0  0  0  0  0  0  0  0
    1.1994   -3.9404    0.4245 H   0  0  0  0  0  0  0  0  0  0  0  0
    1.0345   -2.8015   -0.9350 H   0  0  0  0  0  0  0  0  0  0  0  0
    0.3595   -4.4706   -1.0764 H   0  0  0  0  0  0  0  0  0  0  0  0
   -3.8583    0.8387    1.3546 H   0  0  0  0  0  0  0  0  0  0  0  0
   -2.3624    2.6271    4.8277 H   0  0  0  0  0  0  0  0  0  0  0  0
   -2.7212    1.2631    3.7259 H   0  0  0  0  0  0  0  0  0  0  0  0
    5.1643    2.6242    2.3501 H   0  0  0  0  0  0  0  0  0  0  0  0
    4.9664    2.3681    0.6113 H   0  0  0  0  0  0  0  0  0  0  0  0
   -3.4601    4.2226    3.3883 H   0  0  0  0  0  0  0  0  0  0  0  0
   -2.9996    4.4686    1.6907 H   0  0  0  0  0  0  0  0  0  0  0  0
   -3.8842    2.9776    2.1735 H   0  0  0  0  0  0  0  0  0  0  0  0
    3.1674    4.0637    3.4988 H   0  0  0  0  0  0  0  0  0  0  0  0
    1.6877    3.0843    3.4060 H   0  0  0  0  0  0  0  0  0  0  0  0
    3.2388    2.3014    3.8314 H   0  0  0  0  0  0  0  0  0  0  0  0
   -0.8972    0.7112    5.3662 H   0  0  0  0  0  0  0  0  0  0  0  0
   -0.2624    0.6420    3.6972 H   0  0  0  0  0  0  0  0  0  0  0  0
    0.1013    2.0668    4.7458 H   0  0  0  0  0  0  0  0  0  0  0  0
   -4.9211    2.6564   -0.1350 H   0  0  0  0  0  0  0  0  0  0  0  0
   -6.0817    1.5221    0.6285 H   0  0  0  0  0  0  0  0  0  0  0  0
   -5.6780    1.3381   -1.1021 H   0  0  0  0  0  0  0  0  0  0  0  0
    6.0817    4.5494    1.0258 H   0  0  0  0  0  0  0  0  0  0  0  0
    4.5077    4.7726    0.1911 H   0  0  0  0  0  0  0  0  0  0  0  0
    4.6511    5.1385    1.9451 H   0  0  0  0  0  0  0  0  0  0  0  0
    1.9436    2.6569   -0.9014 H   0  0  0  0  0  0  0  0  0  0  0  0
    3.6016    2.4757   -1.5810 H   0  0  0  0  0  0  0  0  0  0  0  0
    2.2795    1.3247   -2.0283 H   0  0  0  0  0  0  0  0  0  0  0  0
    4.8651   -1.8147    0.5269 H   0  0  0  0  0  0  0  0  0  0  0  0
    4.8046   -0.4214    1.6377 H   0  0  0  0  0  0  0  0  0  0  0  0
    3.2966   -1.3970    1.2629 H   0  0  0  0  0  0  0  0  0  0  0  0
 12  1  1  0      
  1 13  1  0      
  2 15  2  0      
  3 23  2  0      
 28  4  1  0      
  4 43  1  0      
  5 27  2  0      
  6 30  2  0      
  7 38  2  0      
 14  8  1  0      
  8 23  1  0      
  8 40  1  0      
 19  9  1  0      
  9 30  1  0      
  9 41  1  0      
 21 10  1  0      
 10 27  1  0      
 10 42  1  0      
 22 11  1  0      
 11 37  1  0      
 11 38  1  0      
 12 13  1  0      
 12 15  1  0      
 12 17  1  0      
 13 44  1  0      
 13 45  1  0      
 14 15  1  0      
 14 16  1  0      
 14 46  1  0      
 16 18  1  0      
 16 47  1  0      
 16 48  1  0      
 17 49  1  0      
 17 50  1  0      
 17 51  1  0      
 18 25  1  0      
 18 26  1  0      
 18 52  1  0      
 19 20  1  0      
 19 27  1  0      
 19 53  1  0      
 20 29  1  0      
 20 32  1  0      
 20 54  1  0      
 21 23  1  0      
 21 28  1  0      
 21 55  1  0      
 22 24  1  0      
 22 30  1  0      
 22 56  1  0      
 24 31  1  0      
 24 33  1  0      
 24 57  1  0      
 25 58  1  0      
 25 59  1  0      
 25 60  1  0      
 26 61  1  0      
 26 62  1  0      
 26 63  1  0      
 28 35  1  0      
 28 64  1  0      
 29 34  1  0      
 29 65  1  0      
 29 66  1  0      
 31 36  1  0      
 31 67  1  0      
 31 68  1  0      
 32 69  1  0      
 32 70  1  0      
 32 71  1  0      
 33 72  1  0      
 33 73  1  0      
 33 74  1  0      
 34 75  1  0      
 34 76  1  0      
 34 77  1  0      
 35 78  1  0      
 35 79  1  0      
 35 80  1  0      
 36 81  1  0      
 36 82  1  0      
 36 83  1  0      
 37 84  1  0      
 37 85  1  0      
 37 86  1  0      
 38 39  1  0      
 39 87  1  0      
 39 88  1  0      
 39 89  1  0      
M  END
