
  Chem3D Core 15.001261617443D

 93 99  0  0  0  0  0  0  0  0999 V2000
    2.4698    1.2174    1.8408 N   0  0  0  0  0  0  0  0  0  0  0  0
    2.1585    2.0298    0.9295 C   0  0  0  0  0  0  0  0  0  0  0  0
    3.0981    2.5930    0.2902 N   0  0  0  0  0  0  0  0  0  0  0  0
    3.6911    1.0315    2.0826 C   0  0  0  0  0  0  0  0  0  0  0  0
    4.3582    2.4606    0.4456 C   0  0  0  0  0  0  0  0  0  0  0  0
    4.7246    1.6253    1.4455 C   0  0  0  0  0  0  0  0  0  0  0  0
    5.9788    1.2830    1.8350 N   0  0  0  0  0  0  0  0  0  0  0  0
    7.1427    1.5058    1.1457 C   0  0  0  0  0  0  0  0  0  0  0  0
    7.3732    2.5943    0.3492 C   0  0  0  0  0  0  0  0  0  0  0  0
    8.2657    4.6956   -1.1133 C   0  0  0  0  0  0  0  0  0  0  0  0
    9.1618    3.9212   -0.5087 C   0  0  0  0  0  0  0  0  0  0  0  0
    8.6889    2.9032    0.2156 C   0  0  0  0  0  0  0  0  0  0  0  0
    0.9654    2.3338    0.5998 N   0  0  0  0  0  0  0  0  0  0  0  0
   -0.2123    2.0106    0.9655 C   0  0  0  0  0  0  0  0  0  0  0  0
   -1.2095    2.6347    0.2937 C   0  0  0  0  0  0  0  0  0  0  0  0
   -2.4778    2.3251    0.6380 C   0  0  0  0  0  0  0  0  0  0  0  0
   -2.8005    1.4173    1.5775 C   0  0  0  0  0  0  0  0  0  0  0  0
   -1.7879    0.8385    2.2442 C   0  0  0  0  0  0  0  0  0  0  0  0
   -0.5165    1.1269    1.9319 C   0  0  0  0  0  0  0  0  0  0  0  0
   -0.8807    3.5751   -0.6608 O   0  0  0  0  0  0  0  0  0  0  0  0
   -1.8937    4.3326   -1.2708 C   0  0  0  0  0  0  0  0  0  0  0  0
    6.1418    0.4653    3.0619 C   0  0  0  0  0  0  0  0  0  0  0  0
    8.0623    0.7467    1.3804 O   0  0  0  0  0  0  0  0  0  0  0  0
    6.4368    3.3400   -0.2981 C   0  0  0  0  0  0  0  0  0  0  0  0
    5.1592    3.1612   -0.2742 N   0  0  0  0  0  0  0  0  0  0  0  0
    6.9684    4.3920   -0.9799 C   0  0  0  0  0  0  0  0  0  0  0  0
    4.3735    3.8840   -1.3861 C   0  0  0  0  0  0  0  0  0  0  0  0
    3.4292    3.0922   -2.3482 C   0  0  0  0  0  0  0  0  0  0  0  0
    2.2507    4.0445   -2.6220 C   0  0  0  0  0  0  0  0  0  0  0  0
    2.7532    5.4445   -2.2428 C   0  0  0  0  0  0  0  0  0  0  0  0
    3.6434    5.1891   -1.0179 C   0  0  0  0  0  0  0  0  0  0  0  0
   -1.2539    5.3228   -2.2408 C   0  0  0  0  0  0  0  0  0  0  0  0
   -4.0979    1.1263    1.8950 C   0  0  0  0  0  0  0  0  0  0  0  0
   -4.3698    0.6829    2.9893 O   0  0  0  0  0  0  0  0  0  0  0  0
   -5.0978    1.2063    0.9482 N   0  0  0  0  0  0  0  0  0  0  0  0
   -6.5116    1.2532    1.3165 C   0  0  0  0  0  0  0  0  0  0  0  0
   -7.1930   -0.0772    0.9706 C   0  0  0  0  0  0  0  0  0  0  0  0
   -7.0719   -0.3508   -0.5423 C   0  0  0  0  0  0  0  0  0  0  0  0
   -5.5799   -0.3201   -0.9242 C   0  0  0  0  0  0  0  0  0  0  0  0
   -4.9047    0.9962   -0.4895 C   0  0  0  0  0  0  0  0  0  0  0  0
   -7.8212   -1.5425   -0.9500 N   0  0  0  0  0  0  0  0  0  0  0  0
   -7.9328   -1.6608   -2.3984 C   0  0  0  0  0  0  0  0  0  0  0  0
   -8.8551   -2.8294   -2.7855 C   0  0  0  0  0  0  0  0  0  0  0  0
   -8.3524   -4.0819   -2.2444 N   0  0  0  0  0  0  0  0  0  0  0  0
   -8.2252   -3.9722   -0.8001 C   0  0  0  0  0  0  0  0  0  0  0  0
   -7.3094   -2.7966   -0.4152 C   0  0  0  0  0  0  0  0  0  0  0  0
   -9.2040   -5.2003   -2.6179 C   0  0  0  0  0  0  0  0  0  0  0  0
    3.7931    0.2793    2.8794 H   0  0  0  0  0  0  0  0  0  0  0  0
    8.6012    5.5839   -1.6763 H   0  0  0  0  0  0  0  0  0  0  0  0
   10.2397    4.1451   -0.5725 H   0  0  0  0  0  0  0  0  0  0  0  0
    9.5063    2.3590    0.7200 H   0  0  0  0  0  0  0  0  0  0  0  0
    0.9396    3.0412   -0.1785 H   0  0  0  0  0  0  0  0  0  0  0  0
   -3.3003    2.8689    0.1518 H   0  0  0  0  0  0  0  0  0  0  0  0
   -1.9650    0.0977    3.0425 H   0  0  0  0  0  0  0  0  0  0  0  0
    0.2516    0.5942    2.5095 H   0  0  0  0  0  0  0  0  0  0  0  0
   -2.5756    3.6575   -1.8394 H   0  0  0  0  0  0  0  0  0  0  0  0
   -2.4538    4.9012   -0.4916 H   0  0  0  0  0  0  0  0  0  0  0  0
    5.5049    0.8277    3.8995 H   0  0  0  0  0  0  0  0  0  0  0  0
    5.9727   -0.6171    2.8566 H   0  0  0  0  0  0  0  0  0  0  0  0
    7.1446    0.5790    3.5312 H   0  0  0  0  0  0  0  0  0  0  0  0
    6.3834    5.1901   -1.4597 H   0  0  0  0  0  0  0  0  0  0  0  0
    5.0656    4.1454   -2.2220 H   0  0  0  0  0  0  0  0  0  0  0  0
    3.9241    2.8300   -3.3159 H   0  0  0  0  0  0  0  0  0  0  0  0
    3.0721    2.1068   -1.9802 H   0  0  0  0  0  0  0  0  0  0  0  0
    1.3994    3.7774   -1.9559 H   0  0  0  0  0  0  0  0  0  0  0  0
    1.8853    3.9937   -3.6728 H   0  0  0  0  0  0  0  0  0  0  0  0
    3.3691    5.8587   -3.0766 H   0  0  0  0  0  0  0  0  0  0  0  0
    1.9264    6.1595   -2.0316 H   0  0  0  0  0  0  0  0  0  0  0  0
    3.0020    5.0618   -0.1167 H   0  0  0  0  0  0  0  0  0  0  0  0
    4.3334    6.0378   -0.8133 H   0  0  0  0  0  0  0  0  0  0  0  0
   -2.0281    5.9567   -2.7314 H   0  0  0  0  0  0  0  0  0  0  0  0
   -0.5460    6.0015   -1.7123 H   0  0  0  0  0  0  0  0  0  0  0  0
   -0.6926    4.7949   -3.0453 H   0  0  0  0  0  0  0  0  0  0  0  0
   -6.6539    1.4962    2.3942 H   0  0  0  0  0  0  0  0  0  0  0  0
   -7.0045    2.0888    0.7664 H   0  0  0  0  0  0  0  0  0  0  0  0
   -6.7012   -0.8757    1.5721 H   0  0  0  0  0  0  0  0  0  0  0  0
   -8.2684   -0.0445    1.2674 H   0  0  0  0  0  0  0  0  0  0  0  0
   -7.5571    0.5245   -1.0466 H   0  0  0  0  0  0  0  0  0  0  0  0
   -5.0429   -1.1628   -0.4287 H   0  0  0  0  0  0  0  0  0  0  0  0
   -5.4450   -0.4390   -2.0243 H   0  0  0  0  0  0  0  0  0  0  0  0
   -3.8349    0.8916   -0.7794 H   0  0  0  0  0  0  0  0  0  0  0  0
   -5.3257    1.8582   -1.0579 H   0  0  0  0  0  0  0  0  0  0  0  0
   -8.3552   -0.7231   -2.8336 H   0  0  0  0  0  0  0  0  0  0  0  0
   -6.9375   -1.8280   -2.8722 H   0  0  0  0  0  0  0  0  0  0  0  0
   -9.8878   -2.6222   -2.4149 H   0  0  0  0  0  0  0  0  0  0  0  0
   -8.9106   -2.8901   -3.8995 H   0  0  0  0  0  0  0  0  0  0  0  0
   -7.7940   -4.9148   -0.3836 H   0  0  0  0  0  0  0  0  0  0  0  0
   -9.2252   -3.8298   -0.3241 H   0  0  0  0  0  0  0  0  0  0  0  0
   -6.2823   -3.0090   -0.7940 H   0  0  0  0  0  0  0  0  0  0  0  0
   -7.2562   -2.7665    0.6974 H   0  0  0  0  0  0  0  0  0  0  0  0
   -8.7889   -6.1595   -2.2320 H   0  0  0  0  0  0  0  0  0  0  0  0
   -9.2624   -5.2999   -3.7261 H   0  0  0  0  0  0  0  0  0  0  0  0
  -10.2397   -5.0853   -2.2237 H   0  0  0  0  0  0  0  0  0  0  0  0
  2  1  2  0      
  1  4  1  0      
  3  2  1  0      
  2 13  1  0      
  5  3  2  0      
  4  6  2  0      
  4 48  1  0      
  5  6  1  0      
 25  5  1  0      
  6  7  1  0      
  7  8  1  0      
  7 22  1  0      
  8  9  1  0      
  8 23  2  0      
  9 12  1  0      
 24  9  2  0      
 11 10  1  0      
 10 26  2  0      
 10 49  1  0      
 11 12  2  0      
 11 50  1  0      
 12 51  1  0      
 13 14  1  0      
 13 52  1  0      
 14 15  1  0      
 14 19  2  0      
 15 16  2  0      
 15 20  1  0      
 16 17  1  0      
 16 53  1  0      
 17 18  2  0      
 17 33  1  0      
 18 19  1  0      
 18 54  1  0      
 19 55  1  0      
 20 21  1  0      
 21 32  1  0      
 21 56  1  0      
 21 57  1  0      
 22 58  1  0      
 22 59  1  0      
 22 60  1  0      
 24 25  1  0      
 26 24  1  0      
 25 27  1  0      
 26 61  1  0      
 27 28  1  0      
 27 31  1  0      
 27 62  1  0      
 28 29  1  0      
 28 63  1  0      
 28 64  1  0      
 29 30  1  0      
 29 65  1  0      
 29 66  1  0      
 30 31  1  0      
 30 67  1  0      
 30 68  1  0      
 31 69  1  0      
 31 70  1  0      
 32 71  1  0      
 32 72  1  0      
 32 73  1  0      
 33 34  2  0      
 33 35  1  0      
 35 36  1  0      
 35 40  1  0      
 36 37  1  0      
 36 74  1  0      
 36 75  1  0      
 37 38  1  0      
 37 76  1  0      
 37 77  1  0      
 38 39  1  0      
 38 41  1  0      
 38 78  1  0      
 39 40  1  0      
 39 79  1  0      
 39 80  1  0      
 40 81  1  0      
 40 82  1  0      
 41 42  1  0      
 41 46  1  0      
 42 43  1  0      
 42 83  1  0      
 42 84  1  0      
 43 44  1  0      
 43 85  1  0      
 43 86  1  0      
 44 45  1  0      
 44 47  1  0      
 45 46  1  0      
 45 87  1  0      
 45 88  1  0      
 46 89  1  0      
 46 90  1  0      
 47 91  1  0      
 47 92  1  0      
 47 93  1  0      
M  END
