
  Chem3D Core 14.008171510273D

 52 54  0  0  0  0  0  0  0  0999 V2000
   -5.1600    2.7957   -0.0566 C   0  0  0  0  0  0  0  0  0  0  0  0
   -3.9702    2.2128    0.4292 O   0  0  0  0  0  0  0  0  0  0  0  0
   -3.1786    1.6790   -0.6040 C   0  0  0  0  0  0  0  0  0  0  0  0
   -1.9045    1.1152    0.0034 C   0  0  0  0  0  0  0  0  0  0  0  0
   -1.0856    0.6171   -1.0242 O   0  0  0  0  0  0  0  0  0  0  0  0
    0.1568    0.2225   -0.5892 C   0  0  0  0  0  0  0  0  0  0  0  0
    0.4271   -1.0803   -0.3560 C   0  0  0  0  0  0  0  0  0  0  0  0
    1.7008   -1.3894   -0.0458 C   0  0  0  0  0  0  0  0  0  0  0  0
    2.6764   -0.4677    0.0397 C   0  0  0  0  0  0  0  0  0  0  0  0
    2.4180    0.8418   -0.1544 C   0  0  0  0  0  0  0  0  0  0  0  0
    1.1642    1.1139   -0.5505 C   0  0  0  0  0  0  0  0  0  0  0  0
    3.4275    1.7376   -0.0317 C   0  0  0  0  0  0  0  0  0  0  0  0
    4.5940    1.2657    0.1595 N   0  0  0  0  0  0  0  0  0  0  0  0
    4.7499    0.0239    0.3259 C   0  0  0  0  0  0  0  0  0  0  0  0
    3.8505   -0.8604    0.3034 N   0  0  0  0  0  0  0  0  0  0  0  0
    3.4254    3.0146   -0.0680 N   0  0  0  0  0  0  0  0  0  0  0  0
    2.6486    4.0240   -0.0016 C   0  0  0  0  0  0  0  0  0  0  0  0
    3.2160    5.2172   -0.2729 C   0  0  0  0  0  0  0  0  0  0  0  0
    2.5108    6.3589   -0.2440 C   0  0  0  0  0  0  0  0  0  0  0  0
    1.2127    6.3426    0.0902 C   0  0  0  0  0  0  0  0  0  0  0  0
    0.6370    5.1768    0.4203 C   0  0  0  0  0  0  0  0  0  0  0  0
    1.3614    4.0451    0.3923 C   0  0  0  0  0  0  0  0  0  0  0  0
   -0.6242    5.1430    0.7977 C   0  0  0  0  0  0  0  0  0  0  0  0
   -1.7876    5.0979    1.1356 C   0  0  0  0  0  0  0  0  0  0  0  0
   -0.6016   -1.9869   -0.4654 O   0  0  0  0  0  0  0  0  0  0  0  0
   -0.3552   -3.3471   -0.2233 C   0  0  0  0  0  0  0  0  0  0  0  0
   -1.6606   -4.1108   -0.3971 C   0  0  0  0  0  0  0  0  0  0  0  0
   -1.4223   -5.4762   -0.1563 O   0  0  0  0  0  0  0  0  0  0  0  0
   -2.5905   -6.2552   -0.3000 C   0  0  0  0  0  0  0  0  0  0  0  0
   -5.7781    2.0327   -0.5798 H   0  0  0  0  0  0  0  0  0  0  0  0
   -5.7321    3.1856    0.8148 H   0  0  0  0  0  0  0  0  0  0  0  0
   -4.9237    3.6441   -0.7366 H   0  0  0  0  0  0  0  0  0  0  0  0
   -3.7428    0.8725   -1.1268 H   0  0  0  0  0  0  0  0  0  0  0  0
   -2.9247    2.4867   -1.3295 H   0  0  0  0  0  0  0  0  0  0  0  0
   -1.3626    1.9222    0.5498 H   0  0  0  0  0  0  0  0  0  0  0  0
   -2.1388    0.2896    0.7151 H   0  0  0  0  0  0  0  0  0  0  0  0
    1.9815   -2.4396    0.1351 H   0  0  0  0  0  0  0  0  0  0  0  0
    0.9119    2.1106   -0.9342 H   0  0  0  0  0  0  0  0  0  0  0  0
    5.7781   -0.3234    0.5258 H   0  0  0  0  0  0  0  0  0  0  0  0
    4.4187    3.3580   -0.1554 H   0  0  0  0  0  0  0  0  0  0  0  0
    4.2818    5.2900   -0.5542 H   0  0  0  0  0  0  0  0  0  0  0  0
    2.9993    7.3162   -0.4934 H   0  0  0  0  0  0  0  0  0  0  0  0
    0.6414    7.2859    0.1162 H   0  0  0  0  0  0  0  0  0  0  0  0
    0.8699    3.1405    0.7768 H   0  0  0  0  0  0  0  0  0  0  0  0
   -2.8344    5.0524    1.4361 H   0  0  0  0  0  0  0  0  0  0  0  0
    0.3945   -3.7251   -0.9572 H   0  0  0  0  0  0  0  0  0  0  0  0
    0.0128   -3.4775    0.8214 H   0  0  0  0  0  0  0  0  0  0  0  0
   -2.4209   -3.7346    0.3264 H   0  0  0  0  0  0  0  0  0  0  0  0
   -2.0429   -3.9793   -1.4361 H   0  0  0  0  0  0  0  0  0  0  0  0
   -2.9807   -6.1781   -1.3391 H   0  0  0  0  0  0  0  0  0  0  0  0
   -2.3236   -7.3162   -0.0958 H   0  0  0  0  0  0  0  0  0  0  0  0
   -3.3623   -5.9327    0.4338 H   0  0  0  0  0  0  0  0  0  0  0  0
  1  2  1  0      
 30  1  1  0      
 31  1  1  0      
 32  1  1  0      
  2  3  1  0      
  3  4  1  0      
 33  3  1  0      
 34  3  1  0      
  4  5  1  0      
 35  4  1  0      
 36  4  1  0      
  5  6  1  0      
  6  7  2  0      
  6 11  1  0      
  7  8  1  0      
  7 25  1  0      
  8  9  2  0      
 37  8  1  0      
  9 10  1  0      
  9 15  1  0      
 10 11  2  0      
 10 12  1  0      
 38 11  1  0      
 12 13  2  0      
 12 16  1  0      
 13 14  1  0      
 14 15  2  0      
 39 14  1  0      
 16 17  1  0      
 40 16  1  0      
 17 18  2  0      
 17 22  1  0      
 18 19  1  0      
 41 18  1  0      
 19 20  2  0      
 42 19  1  0      
 20 21  1  0      
 43 20  1  0      
 21 22  2  0      
 21 23  1  0      
 44 22  1  0      
 23 24  3  0      
 45 24  1  0      
 25 26  1  0      
 26 27  1  0      
 46 26  1  0      
 47 26  1  0      
 27 28  1  0      
 48 27  1  0      
 49 27  1  0      
 28 29  1  0      
 50 29  1  0      
 51 29  1  0      
 52 29  1  0      
M  END
