
  Chem3D Core 15.003291610523D

 46 49  0  0  0  0  0  0  0  0999 V2000
    4.0260    3.5962    1.3986 O   0  0  0  0  0  0  0  0  0  0  0  0
   -4.7538   -2.7079    1.0812 O   0  0  0  0  0  0  0  0  0  0  0  0
    2.5253    0.4084    0.6098 C   0  0  0  0  0  0  0  0  0  0  0  0
    1.2490   -0.3360    1.0053 C   0  0  0  0  0  0  0  0  0  0  0  0
    2.3870    1.8910    0.9488 C   0  0  0  0  0  0  0  0  0  0  0  0
    0.0480    0.2448    0.2012 C   0  0  0  0  0  0  0  0  0  0  0  0
    3.7885    2.4169    0.6785 C   0  0  0  0  0  0  0  0  0  0  0  0
    3.8165    0.0442    1.3338 C   0  0  0  0  0  0  0  0  0  0  0  0
   -1.2359   -0.5376    0.4678 C   0  0  0  0  0  0  0  0  0  0  0  0
    1.2542    2.5194    0.1583 C   0  0  0  0  0  0  0  0  0  0  0  0
   -0.0612    1.7750    0.4351 C   0  0  0  0  0  0  0  0  0  0  0  0
    1.3485   -1.8403    0.7561 C   0  0  0  0  0  0  0  0  0  0  0  0
    4.7059    1.2858    1.1651 C   0  0  0  0  0  0  0  0  0  0  0  0
   -1.1856   -1.8608    0.9571 C   0  0  0  0  0  0  0  0  0  0  0  0
    1.9749    2.2186    2.3779 C   0  0  0  0  0  0  0  0  0  0  0  0
    0.1143   -2.5385    1.3173 C   0  0  0  0  0  0  0  0  0  0  0  0
    4.0051    2.7552   -0.7355 C   0  0  0  0  0  0  0  0  0  0  0  0
   -2.4936    0.0045    0.1485 C   0  0  0  0  0  0  0  0  0  0  0  0
   -2.3780   -2.5753    1.1689 C   0  0  0  0  0  0  0  0  0  0  0  0
   -3.6701   -0.7195    0.3541 C   0  0  0  0  0  0  0  0  0  0  0  0
   -3.6131   -2.0076    0.8700 C   0  0  0  0  0  0  0  0  0  0  0  0
    4.1838    3.0342   -1.9014 C   0  0  0  0  0  0  0  0  0  0  0  0
    2.6130    0.1326   -0.4649 H   0  0  0  0  0  0  0  0  0  0  0  0
    1.0991   -0.1904    2.0985 H   0  0  0  0  0  0  0  0  0  0  0  0
    0.2295    0.1142   -0.8891 H   0  0  0  0  0  0  0  0  0  0  0  0
    3.8904    3.3935    2.3085 H   0  0  0  0  0  0  0  0  0  0  0  0
   -5.5030   -2.1491    0.8146 H   0  0  0  0  0  0  0  0  0  0  0  0
    3.6212   -0.1577    2.4108 H   0  0  0  0  0  0  0  0  0  0  0  0
    4.2888   -0.8774    0.9261 H   0  0  0  0  0  0  0  0  0  0  0  0
    1.4878    2.4610   -0.9283 H   0  0  0  0  0  0  0  0  0  0  0  0
    1.1420    3.5831    0.4662 H   0  0  0  0  0  0  0  0  0  0  0  0
   -0.8473    2.1815   -0.2399 H   0  0  0  0  0  0  0  0  0  0  0  0
   -0.3132    1.9311    1.5079 H   0  0  0  0  0  0  0  0  0  0  0  0
    1.4141   -2.0297   -0.3387 H   0  0  0  0  0  0  0  0  0  0  0  0
    2.2575   -2.2376    1.2606 H   0  0  0  0  0  0  0  0  0  0  0  0
    5.5030    1.0880    0.4140 H   0  0  0  0  0  0  0  0  0  0  0  0
    5.2052    1.5563    2.1224 H   0  0  0  0  0  0  0  0  0  0  0  0
    1.0181    2.7872    2.3676 H   0  0  0  0  0  0  0  0  0  0  0  0
    1.8381    1.2737    2.9499 H   0  0  0  0  0  0  0  0  0  0  0  0
    2.7668    2.8340    2.8604 H   0  0  0  0  0  0  0  0  0  0  0  0
    0.0891   -3.5782    0.9210 H   0  0  0  0  0  0  0  0  0  0  0  0
    0.2000   -2.5069    2.4266 H   0  0  0  0  0  0  0  0  0  0  0  0
   -2.5520    1.0194   -0.2717 H   0  0  0  0  0  0  0  0  0  0  0  0
   -2.3341   -3.5962    1.5761 H   0  0  0  0  0  0  0  0  0  0  0  0
   -4.6428   -0.2690    0.1072 H   0  0  0  0  0  0  0  0  0  0  0  0
    4.3444    3.2850   -2.9499 H   0  0  0  0  0  0  0  0  0  0  0  0
  7  1  1  0      
  1 26  1  0      
  2 21  1  0      
  2 27  1  0      
  4  3  1  0      
  5  3  1  0      
  3  8  1  0      
  3 23  1  0      
  6  4  1  0      
  4 12  1  0      
  4 24  1  0      
  5  7  1  0      
  5 10  1  0      
  5 15  1  0      
  6  9  1  0      
 11  6  1  0      
  6 25  1  0      
 13  7  1  0      
  7 17  1  0      
  8 13  1  0      
  8 28  1  0      
  8 29  1  0      
 14  9  2  0      
 18  9  1  0      
 10 11  1  0      
 10 30  1  0      
 10 31  1  0      
 11 32  1  0      
 11 33  1  0      
 12 16  1  0      
 12 34  1  0      
 12 35  1  0      
 13 36  1  0      
 13 37  1  0      
 16 14  1  0      
 14 19  1  0      
 15 38  1  0      
 15 39  1  0      
 15 40  1  0      
 16 41  1  0      
 16 42  1  0      
 17 22  3  0      
 20 18  2  0      
 18 43  1  0      
 19 21  2  0      
 19 44  1  0      
 21 20  1  0      
 20 45  1  0      
 22 46  1  0      
M  END
