
  Chem3D Core 15.010021516053D

 51 54  0  0  0  0  0  0  0  0999 V2000
   -1.6998    2.9447    6.8810 F   0  0  0  0  0  0  0  0  0  0  0  0
    0.8317    0.9535   -6.8810 F   0  0  0  0  0  0  0  0  0  0  0  0
    2.7160    0.5892    2.4479 O   0  0  0  0  0  0  0  0  0  0  0  0
   -4.0104   -3.4676    1.4169 O   0  0  0  0  0  0  0  0  0  0  0  0
    3.7634    2.9487   -1.7890 O   0  0  0  0  0  0  0  0  0  0  0  0
    0.4238    0.9776    2.3247 N   0  0  0  0  0  0  0  0  0  0  0  0
   -0.2581    0.6804    1.0531 C   0  0  0  0  0  0  0  0  0  0  0  0
    1.1485    0.2383    0.4940 C   0  0  0  0  0  0  0  0  0  0  0  0
    1.6557    0.6001    1.8862 C   0  0  0  0  0  0  0  0  0  0  0  0
   -1.2558   -0.4500    1.1652 C   0  0  0  0  0  0  0  0  0  0  0  0
   -0.0872    1.4692    3.4730 C   0  0  0  0  0  0  0  0  0  0  0  0
    1.6822    1.1109   -0.6426 C   0  0  0  0  0  0  0  0  0  0  0  0
   -1.0539   -1.5062    1.9725 C   0  0  0  0  0  0  0  0  0  0  0  0
   -2.3883   -0.4221    0.4416 C   0  0  0  0  0  0  0  0  0  0  0  0
   -1.3959    1.7778    3.5529 C   0  0  0  0  0  0  0  0  0  0  0  0
    0.6648    1.6739    4.5705 C   0  0  0  0  0  0  0  0  0  0  0  0
    3.1283    0.7515   -1.0171 C   0  0  0  0  0  0  0  0  0  0  0  0
   -1.9577   -2.4945    2.0549 C   0  0  0  0  0  0  0  0  0  0  0  0
   -3.2890   -1.4128    0.5269 C   0  0  0  0  0  0  0  0  0  0  0  0
   -3.0924   -2.4673    1.3358 C   0  0  0  0  0  0  0  0  0  0  0  0
    3.6946    1.5856   -2.1675 C   0  0  0  0  0  0  0  0  0  0  0  0
   -1.9341    2.2667    4.6813 C   0  0  0  0  0  0  0  0  0  0  0  0
    0.1333    2.1628    5.7025 C   0  0  0  0  0  0  0  0  0  0  0  0
   -1.1721    2.4626    5.7672 C   0  0  0  0  0  0  0  0  0  0  0  0
    2.9083    1.4307   -3.4528 C   0  0  0  0  0  0  0  0  0  0  0  0
    3.1195    0.3660   -4.2475 C   0  0  0  0  0  0  0  0  0  0  0  0
    1.9820    2.3306   -3.8305 C   0  0  0  0  0  0  0  0  0  0  0  0
    2.4322    0.2044   -5.3886 C   0  0  0  0  0  0  0  0  0  0  0  0
    1.2920    2.1734   -4.9709 C   0  0  0  0  0  0  0  0  0  0  0  0
    1.5136    1.1096   -5.7579 C   0  0  0  0  0  0  0  0  0  0  0  0
   -0.6431    1.6111    0.5806 H   0  0  0  0  0  0  0  0  0  0  0  0
    1.2382   -0.8558    0.3180 H   0  0  0  0  0  0  0  0  0  0  0  0
   -4.7511   -3.2692    0.8213 H   0  0  0  0  0  0  0  0  0  0  0  0
    3.8256    3.4676   -2.5955 H   0  0  0  0  0  0  0  0  0  0  0  0
    1.0137    0.9611   -1.5228 H   0  0  0  0  0  0  0  0  0  0  0  0
    1.6210    2.1857   -0.3530 H   0  0  0  0  0  0  0  0  0  0  0  0
   -0.1378   -1.5748    2.5814 H   0  0  0  0  0  0  0  0  0  0  0  0
   -2.5865    0.4260   -0.2346 H   0  0  0  0  0  0  0  0  0  0  0  0
   -2.0653    1.6399    2.6884 H   0  0  0  0  0  0  0  0  0  0  0  0
    1.7408    1.4452    4.5789 H   0  0  0  0  0  0  0  0  0  0  0  0
    3.7823    0.8854   -0.1230 H   0  0  0  0  0  0  0  0  0  0  0  0
    3.1756   -0.3293   -1.2921 H   0  0  0  0  0  0  0  0  0  0  0  0
   -1.7676   -3.3489    2.7262 H   0  0  0  0  0  0  0  0  0  0  0  0
   -4.2097   -1.3617   -0.0783 H   0  0  0  0  0  0  0  0  0  0  0  0
    4.7511    1.2811   -2.3633 H   0  0  0  0  0  0  0  0  0  0  0  0
   -3.0091    2.5107    4.7181 H   0  0  0  0  0  0  0  0  0  0  0  0
    0.7718    2.3197    6.5880 H   0  0  0  0  0  0  0  0  0  0  0  0
    3.8671   -0.3922   -3.9607 H   0  0  0  0  0  0  0  0  0  0  0  0
    1.7633    3.2112   -3.2052 H   0  0  0  0  0  0  0  0  0  0  0  0
    2.6208   -0.6762   -6.0249 H   0  0  0  0  0  0  0  0  0  0  0  0
    0.5344    2.9199   -5.2624 H   0  0  0  0  0  0  0  0  0  0  0  0
  1 24  1  0      
  2 30  1  0      
  3  9  2  0      
  4 20  1  0      
  4 33  1  0      
 21  5  1  0      
  5 34  1  0      
  7  6  1  0      
  9  6  1  0      
  6 11  1  0      
  7  8  1  0      
  7 10  1  0      
  7 31  1  0      
  8  9  1  0      
  8 12  1  0      
  8 32  1  0      
 10 13  1  0      
 10 14  2  0      
 11 15  1  0      
 11 16  2  0      
 12 17  1  0      
 12 35  1  0      
 12 36  1  0      
 13 18  2  0      
 13 37  1  0      
 19 14  1  0      
 14 38  1  0      
 15 22  2  0      
 15 39  1  0      
 23 16  1  0      
 16 40  1  0      
 17 21  1  0      
 17 41  1  0      
 17 42  1  0      
 18 20  1  0      
 18 43  1  0      
 20 19  2  0      
 19 44  1  0      
 21 25  1  0      
 21 45  1  0      
 22 24  1  0      
 22 46  1  0      
 24 23  2  0      
 23 47  1  0      
 25 26  1  0      
 25 27  2  0      
 26 28  2  0      
 26 48  1  0      
 29 27  1  0      
 27 49  1  0      
 28 30  1  0      
 28 50  1  0      
 30 29  2  0      
 29 51  1  0      
M  END
