
  Chem3D Core 15.003291616373D

  0  0  0     0  0              0 V3000
M  V30 BEGIN CTAB
M  V30 COUNTS 39 41 0 0 0
M  V30 BEGIN ATOM
M  V30 1 N 0.031575 -0.966119 0.252862 0
M  V30 2 C 0.540775 0.157169 -0.040190 0
M  V30 3 C -1.233430 -0.933768 0.258234 0
M  V30 4 S -0.471562 1.192285 -0.294670 0
M  V30 5 C -1.615825 0.314192 -0.057370 0
M  V30 6 C 1.878571 0.349307 -0.103219 0
M  V30 7 C -2.016506 -1.996940 0.539248 0
M  V30 8 N 4.574563 0.674020 -0.213426 0
M  V30 9 C 2.469118 1.524213 -0.409863 0
M  V30 10 C -1.472796 -3.193842 0.840389 0
M  V30 11 C -3.362432 -1.929971 0.536636 0
M  V30 12 C 3.808181 1.653073 -0.456223 0
M  V30 13 C 4.057663 -0.441502 0.076999 0
M  V30 14 C -2.229890 -4.265717 1.123699 0
M  V30 15 C -4.122888 -2.999580 0.819248 0
M  V30 16 C -3.570300 -4.186377 1.117751 0
M  V30 17 C 2.736257 -0.660350 0.146262 0
M  V30 18 C 4.545737 2.935442 -0.791549 0
M  V30 19 C -4.440652 -5.378979 1.433793 0
M  V30 20 C 3.690084 4.174097 -1.101045 0
M  V30 21 C 4.560106 5.398225 -1.422579 0
M  V30 22 H -2.642436 0.691611 -0.142827 0
M  V30 23 H 1.863642 2.414312 -0.631484 0
M  V30 24 H -0.379340 -3.339039 0.865797 0
M  V30 25 H -3.897414 -0.996088 0.302944 0
M  V30 26 H 4.765247 -1.263734 0.280135 0
M  V30 27 H -1.738823 -5.223451 1.364197 0
M  V30 28 H -5.221854 -2.904058 0.806642 0
M  V30 29 H 2.400087 -1.676656 0.409493 0
M  V30 30 H 5.215403 3.179315 0.068434 0
M  V30 31 H 5.199363 2.732901 -1.674307 0
M  V30 32 H -3.848467 -6.289598 1.675802 0
M  V30 33 H -5.091846 -5.160621 2.310677 0
M  V30 34 H -5.091017 -5.623253 0.563128 0
M  V30 35 H 3.028508 3.970629 -1.977375 0
M  V30 36 H 3.044469 4.419966 -0.223678 0
M  V30 37 H 3.929281 6.289598 -1.645352 0
M  V30 38 H 5.221854 5.658865 -0.565120 0
M  V30 39 H 5.206264 5.211629 -2.310677 0
M  V30 END ATOM
M  V30 BEGIN BOND
M  V30 1 2 2 1
M  V30 2 1 3 1
M  V30 3 1 4 2
M  V30 4 1 2 6
M  V30 5 2 3 5
M  V30 6 1 3 7
M  V30 7 1 5 4
M  V30 8 1 5 22
M  V30 9 2 6 9
M  V30 10 1 17 6
M  V30 11 1 7 10
M  V30 12 2 7 11
M  V30 13 2 12 8
M  V30 14 1 8 13
M  V30 15 1 9 12
M  V30 16 1 9 23
M  V30 17 2 10 14
M  V30 18 1 10 24
M  V30 19 1 15 11
M  V30 20 1 11 25
M  V30 21 1 12 18
M  V30 22 2 17 13
M  V30 23 1 13 26
M  V30 24 1 14 16
M  V30 25 1 14 27
M  V30 26 2 16 15
M  V30 27 1 15 28
M  V30 28 1 16 19
M  V30 29 1 17 29
M  V30 30 1 18 20
M  V30 31 1 18 30
M  V30 32 1 18 31
M  V30 33 1 19 32
M  V30 34 1 19 33
M  V30 35 1 19 34
M  V30 36 1 20 21
M  V30 37 1 20 35
M  V30 38 1 20 36
M  V30 39 1 21 37
M  V30 40 1 21 38
M  V30 41 1 21 39
M  V30 END BOND
M  V30 END CTAB
M  END
