
  Chem3D Core 15.003291611013D

 44 45  0  0  0  0  0  0  0  0999 V2000
    2.0550    1.2720    0.2232 O   0  0  0  0  0  0  0  0  0  0  0  0
    1.5623    2.2083   -0.3747 C   0  0  0  0  0  0  0  0  0  0  0  0
    0.3632    2.0163   -1.0109 C   0  0  0  0  0  0  0  0  0  0  0  0
   -0.2514    2.9837   -1.7251 C   0  0  0  0  0  0  0  0  0  0  0  0
    0.2642    4.3994   -1.8942 C   0  0  0  0  0  0  0  0  0  0  0  0
   -1.3437    2.6923   -2.3092 N   0  0  0  0  0  0  0  0  0  0  0  0
   -2.0396    1.6300   -2.3906 C   0  0  0  0  0  0  0  0  0  0  0  0
   -3.3060    1.7024   -3.2219 C   0  0  0  0  0  0  0  0  0  0  0  0
   -1.5970    0.5326   -1.7382 C   0  0  0  0  0  0  0  0  0  0  0  0
   -2.2204   -0.6886   -1.7714 C   0  0  0  0  0  0  0  0  0  0  0  0
   -1.6742   -1.7432   -1.0809 O   0  0  0  0  0  0  0  0  0  0  0  0
   -2.2475   -3.0184   -1.1863 C   0  0  0  0  0  0  0  0  0  0  0  0
   -1.4380   -3.9838   -0.3250 C   0  0  0  0  0  0  0  0  0  0  0  0
   -3.2347   -0.8952   -2.4055 O   0  0  0  0  0  0  0  0  0  0  0  0
   -0.3146    0.6525   -0.9214 C   0  0  0  0  0  0  0  0  0  0  0  0
   -0.5305    0.2221    0.5343 C   0  0  0  0  0  0  0  0  0  0  0  0
    0.1151   -0.8758    0.9780 C   0  0  0  0  0  0  0  0  0  0  0  0
   -0.0192   -1.3237    2.2333 C   0  0  0  0  0  0  0  0  0  0  0  0
   -0.8149   -0.6679    3.0871 C   0  0  0  0  0  0  0  0  0  0  0  0
   -1.4686    0.4305    2.6768 C   0  0  0  0  0  0  0  0  0  0  0  0
   -2.4781    1.2224    3.8441 Cl  0  0  0  0  0  0  0  0  0  0  0  0
   -1.3284    0.8737    1.4087 C   0  0  0  0  0  0  0  0  0  0  0  0
   -2.1837    2.2929    0.9029 Cl  0  0  0  0  0  0  0  0  0  0  0  0
    2.2404    3.3990   -0.3855 O   0  0  0  0  0  0  0  0  0  0  0  0
    3.4701    3.4918    0.2942 C   0  0  0  0  0  0  0  0  0  0  0  0
    0.3428    4.9248   -0.9162 H   0  0  0  0  0  0  0  0  0  0  0  0
    1.2342    4.4191   -2.4396 H   0  0  0  0  0  0  0  0  0  0  0  0
   -0.4329    5.0171   -2.5039 H   0  0  0  0  0  0  0  0  0  0  0  0
   -1.7565    3.4984   -2.8436 H   0  0  0  0  0  0  0  0  0  0  0  0
   -3.4771    2.7292   -3.6170 H   0  0  0  0  0  0  0  0  0  0  0  0
   -3.2439    1.0447   -4.1182 H   0  0  0  0  0  0  0  0  0  0  0  0
   -4.2084    1.4700   -2.6123 H   0  0  0  0  0  0  0  0  0  0  0  0
   -3.3002   -2.9852   -0.8196 H   0  0  0  0  0  0  0  0  0  0  0  0
   -2.2215   -3.3482   -2.2512 H   0  0  0  0  0  0  0  0  0  0  0  0
   -1.8502   -5.0171   -0.3885 H   0  0  0  0  0  0  0  0  0  0  0  0
   -0.3739   -4.0198   -0.6539 H   0  0  0  0  0  0  0  0  0  0  0  0
   -1.4548   -3.6763    0.7459 H   0  0  0  0  0  0  0  0  0  0  0  0
    0.3980   -0.0410   -1.4362 H   0  0  0  0  0  0  0  0  0  0  0  0
    0.7782   -1.4421    0.3024 H   0  0  0  0  0  0  0  0  0  0  0  0
    0.5212   -2.2275    2.5614 H   0  0  0  0  0  0  0  0  0  0  0  0
   -0.9181   -1.0461    4.1182 H   0  0  0  0  0  0  0  0  0  0  0  0
    3.8521    4.5291    0.1648 H   0  0  0  0  0  0  0  0  0  0  0  0
    3.3245    3.3011    1.3811 H   0  0  0  0  0  0  0  0  0  0  0  0
    4.2084    2.7850   -0.1465 H   0  0  0  0  0  0  0  0  0  0  0  0
  1  2  2  0      
  2  3  1  0      
  2 24  1  0      
  3  4  2  0      
  3 15  1  0      
  4  5  1  0      
  4  6  1  0      
  5 26  1  0      
  5 27  1  0      
  5 28  1  0      
  6  7  1  0      
  6 29  1  0      
  7  8  1  0      
  7  9  2  0      
  8 30  1  0      
  8 31  1  0      
  8 32  1  0      
  9 10  1  0      
  9 15  1  0      
 10 11  1  0      
 10 14  2  0      
 11 12  1  0      
 12 13  1  0      
 12 33  1  0      
 12 34  1  0      
 13 35  1  0      
 13 36  1  0      
 13 37  1  0      
 15 16  1  0      
 15 38  1  0      
 16 17  1  0      
 16 22  2  0      
 17 18  2  0      
 17 39  1  0      
 18 19  1  0      
 18 40  1  0      
 19 20  2  0      
 19 41  1  0      
 20 21  1  0      
 20 22  1  0      
 22 23  1  0      
 24 25  1  0      
 25 42  1  0      
 25 43  1  0      
 25 44  1  0      
M  END
