
  Chem3D Core 15.008141512273D

 62 63  0  0  0  0  0  0  0  0999 V2000
    6.3572   -3.5841    0.0755 O   0  0  0  0  0  0  0  0  0  0  0  0
    6.3845    3.2318   -2.9496 O   0  0  0  0  0  0  0  0  0  0  0  0
    6.6474   -1.4419   -0.1854 N   0  0  0  0  0  0  0  0  0  0  0  0
   -5.0282   -1.6086    0.8705 C   0  0  0  0  0  0  0  0  0  0  0  0
   -4.5870   -0.1955    1.3113 C   0  0  0  0  0  0  0  0  0  0  0  0
   -5.5266    0.7496    1.5772 C   0  0  0  0  0  0  0  0  0  0  0  0
   -6.5627   -1.8092    0.9973 C   0  0  0  0  0  0  0  0  0  0  0  0
   -3.2870    0.1745    1.4209 C   0  0  0  0  0  0  0  0  0  0  0  0
   -7.0112    0.5736    1.3355 C   0  0  0  0  0  0  0  0  0  0  0  0
   -7.3471   -0.6220    0.4504 C   0  0  0  0  0  0  0  0  0  0  0  0
   -4.4518   -2.7189    1.7875 C   0  0  0  0  0  0  0  0  0  0  0  0
   -4.6436   -1.8659   -0.6049 C   0  0  0  0  0  0  0  0  0  0  0  0
    6.5086   -0.2975   -0.8847 C   0  0  0  0  0  0  0  0  0  0  0  0
   -2.1537   -0.5068    1.1663 C   0  0  0  0  0  0  0  0  0  0  0  0
   -5.2480    2.1357    2.1388 C   0  0  0  0  0  0  0  0  0  0  0  0
   -0.8862   -0.0463    1.3023 C   0  0  0  0  0  0  0  0  0  0  0  0
    5.8291   -2.4967    0.0669 C   0  0  0  0  0  0  0  0  0  0  0  0
    5.4476    0.0180   -1.6463 C   0  0  0  0  0  0  0  0  0  0  0  0
    7.5430    0.5607   -0.8562 C   0  0  0  0  0  0  0  0  0  0  0  0
    6.4238    2.0564   -2.2660 C   0  0  0  0  0  0  0  0  0  0  0  0
    5.4071    1.1795   -2.3175 C   0  0  0  0  0  0  0  0  0  0  0  0
    7.4959    1.7201   -1.5296 C   0  0  0  0  0  0  0  0  0  0  0  0
    4.4772   -2.4022    0.2052 C   0  0  0  0  0  0  0  0  0  0  0  0
    3.7149   -1.3632    0.6206 C   0  0  0  0  0  0  0  0  0  0  0  0
    0.1256   -0.8787    0.9616 C   0  0  0  0  0  0  0  0  0  0  0  0
    2.3726   -1.5398    0.6222 C   0  0  0  0  0  0  0  0  0  0  0  0
    1.4494   -0.6323    0.9967 C   0  0  0  0  0  0  0  0  0  0  0  0
   -0.6429    1.3603    1.8239 C   0  0  0  0  0  0  0  0  0  0  0  0
    4.2950   -0.0713    1.1679 C   0  0  0  0  0  0  0  0  0  0  0  0
    7.2199    3.7083   -2.8166 H   0  0  0  0  0  0  0  0  0  0  0  0
    7.6008   -1.5526    0.1235 H   0  0  0  0  0  0  0  0  0  0  0  0
   -6.8880   -2.7424    0.4802 H   0  0  0  0  0  0  0  0  0  0  0  0
   -6.8509   -1.9361    2.0686 H   0  0  0  0  0  0  0  0  0  0  0  0
   -3.0931    1.2073    1.7350 H   0  0  0  0  0  0  0  0  0  0  0  0
   -7.5136    0.4726    2.3268 H   0  0  0  0  0  0  0  0  0  0  0  0
   -7.4214    1.4868    0.8409 H   0  0  0  0  0  0  0  0  0  0  0  0
   -8.4448   -0.8227    0.4738 H   0  0  0  0  0  0  0  0  0  0  0  0
   -7.0771   -0.4189   -0.6107 H   0  0  0  0  0  0  0  0  0  0  0  0
   -4.6562   -2.4967    2.8598 H   0  0  0  0  0  0  0  0  0  0  0  0
   -4.9084   -3.7083    1.5565 H   0  0  0  0  0  0  0  0  0  0  0  0
   -3.3628   -2.8944    1.7020 H   0  0  0  0  0  0  0  0  0  0  0  0
   -3.5502   -1.8941   -0.7865 H   0  0  0  0  0  0  0  0  0  0  0  0
   -5.0313   -2.8465   -0.9618 H   0  0  0  0  0  0  0  0  0  0  0  0
   -5.0469   -1.0784   -1.2788 H   0  0  0  0  0  0  0  0  0  0  0  0
   -2.2560   -1.5319    0.7959 H   0  0  0  0  0  0  0  0  0  0  0  0
   -4.4871    2.1425    2.9496 H   0  0  0  0  0  0  0  0  0  0  0  0
   -4.9490    2.8329    1.3231 H   0  0  0  0  0  0  0  0  0  0  0  0
   -6.1508    2.5667    2.6270 H   0  0  0  0  0  0  0  0  0  0  0  0
    4.5965   -0.6719   -1.7545 H   0  0  0  0  0  0  0  0  0  0  0  0
    8.4448    0.3237   -0.2659 H   0  0  0  0  0  0  0  0  0  0  0  0
    4.5243    1.4183   -2.9346 H   0  0  0  0  0  0  0  0  0  0  0  0
    8.3541    2.4113   -1.4802 H   0  0  0  0  0  0  0  0  0  0  0  0
    3.9645   -3.3745    0.0695 H   0  0  0  0  0  0  0  0  0  0  0  0
   -0.1491   -1.8873    0.6012 H   0  0  0  0  0  0  0  0  0  0  0  0
    1.9781   -2.5088    0.2659 H   0  0  0  0  0  0  0  0  0  0  0  0
    1.8000    0.3509    1.3323 H   0  0  0  0  0  0  0  0  0  0  0  0
   -1.0110    2.1138    1.0905 H   0  0  0  0  0  0  0  0  0  0  0  0
   -1.1555    1.5130    2.8008 H   0  0  0  0  0  0  0  0  0  0  0  0
    0.4126    1.6236    2.0316 H   0  0  0  0  0  0  0  0  0  0  0  0
    5.3762   -0.1294    1.4087 H   0  0  0  0  0  0  0  0  0  0  0  0
    4.1106    0.7921    0.4909 H   0  0  0  0  0  0  0  0  0  0  0  0
    3.8469    0.1668    2.1588 H   0  0  0  0  0  0  0  0  0  0  0  0
  1 17  2  0      
  2 20  1  0      
  2 30  1  0      
  3 13  1  0      
  3 17  1  0      
  3 31  1  0      
  5  4  1  0      
  7  4  1  0      
  4 11  1  0      
  4 12  1  0      
  5  6  2  0      
  5  8  1  0      
  6  9  1  0      
  6 15  1  0      
 10  7  1  0      
  7 32  1  0      
  7 33  1  0      
  8 14  2  0      
  8 34  1  0      
  9 10  1  0      
  9 35  1  0      
  9 36  1  0      
 10 37  1  0      
 10 38  1  0      
 11 39  1  0      
 11 40  1  0      
 11 41  1  0      
 12 42  1  0      
 12 43  1  0      
 12 44  1  0      
 13 18  1  0      
 13 19  2  0      
 14 16  1  0      
 14 45  1  0      
 15 46  1  0      
 15 47  1  0      
 15 48  1  0      
 16 25  2  0      
 16 28  1  0      
 17 23  1  0      
 18 21  2  0      
 18 49  1  0      
 22 19  1  0      
 19 50  1  0      
 21 20  1  0      
 20 22  2  0      
 21 51  1  0      
 22 52  1  0      
 23 24  2  0      
 23 53  1  0      
 24 26  1  0      
 24 29  1  0      
 25 27  1  0      
 25 54  1  0      
 26 27  2  0      
 26 55  1  0      
 27 56  1  0      
 28 57  1  0      
 28 58  1  0      
 28 59  1  0      
 29 60  1  0      
 29 61  1  0      
 29 62  1  0      
M  END
