
  Chem3D Core 15.003291616413D

  0  0  0     0  0              0 V3000
M  V30 BEGIN CTAB
M  V30 COUNTS 63 66 0 0 0
M  V30 BEGIN ATOM
M  V30 1 O 2.736899 3.438243 -1.107908 0
M  V30 2 O -6.302866 -3.602068 -1.217896 0
M  V30 3 N -4.087634 -3.600432 -1.165698 0
M  V30 4 N 3.900309 2.066120 0.279716 0
M  V30 5 C -0.255060 -1.589648 -0.855672 0
M  V30 6 C -1.552220 -0.756950 -1.048792 0
M  V30 7 C 0.934263 -0.770950 -1.376341 0
M  V30 8 C -2.810212 -1.555280 -0.615148 0
M  V30 9 C 1.115782 0.571378 -0.638232 0
M  V30 10 C -2.829988 -2.888208 -1.391300 0
M  V30 11 C -1.415195 0.644657 -0.411556 0
M  V30 12 C -0.336142 -2.963362 -1.544322 0
M  V30 13 C 2.382085 1.092426 -1.357092 0
M  V30 14 C -0.156519 1.402826 -0.877221 0
M  V30 15 C 2.339061 -1.383730 -1.364804 0
M  V30 16 C -1.588968 -3.743384 -1.119119 0
M  V30 17 C -4.128285 -0.893316 -0.972510 0
M  V30 18 C 3.272836 -0.162655 -1.518800 0
M  V30 19 C -2.865047 -1.780085 0.913278 0
M  V30 20 C 1.386719 0.439705 0.877342 0
M  V30 21 C 3.021618 2.327110 -0.736081 0
M  V30 22 C -5.286872 -2.954253 -1.167858 0
M  V30 23 C -5.254702 -1.596732 -1.174296 0
M  V30 24 C 4.616634 3.095052 1.053548 0
M  V30 25 C 5.575749 2.323261 1.985257 0
M  V30 26 C 5.462072 4.019268 0.157153 0
M  V30 27 C 3.631765 3.900165 1.920164 0
M  V30 28 H -0.092679 -1.786082 0.228393 0
M  V30 29 H -1.660806 -0.580143 -2.149499 0
M  V30 30 H 0.712673 -0.554880 -2.453627 0
M  V30 31 H -2.818766 -2.656892 -2.487506 0
M  V30 32 H -4.126153 -4.616592 -1.216544 0
M  V30 33 H 4.007256 1.096304 0.577354 0
M  V30 34 H -2.300559 1.275583 -0.656931 0
M  V30 35 H -1.400829 0.558673 0.697122 0
M  V30 36 H 0.569846 -3.569449 -1.306277 0
M  V30 37 H -0.349532 -2.820033 -2.650720 0
M  V30 38 H 2.079723 1.404109 -2.389458 0
M  V30 39 H -0.263671 1.633635 -1.963312 0
M  V30 40 H -0.073329 2.383479 -0.353186 0
M  V30 41 H 2.515857 -1.903776 -0.395039 0
M  V30 42 H 2.484731 -2.128500 -2.180337 0
M  V30 43 H -1.532168 -4.027407 -0.044211 0
M  V30 44 H -1.651749 -4.695412 -1.698640 0
M  V30 45 H -4.185818 0.205868 -0.968782 0
M  V30 46 H 3.768358 -0.158193 -2.518035 0
M  V30 47 H 4.084430 -0.220693 -0.759439 0
M  V30 48 H -1.936642 -2.226258 1.326693 0
M  V30 49 H -3.035798 -0.826264 1.460334 0
M  V30 50 H -3.696860 -2.459555 1.204807 0
M  V30 51 H 2.327054 -0.108953 1.100112 0
M  V30 52 H 1.472322 1.442229 1.352968 0
M  V30 53 H 0.583278 -0.090259 1.428989 0
M  V30 54 H -6.202310 -1.044800 -1.301543 0
M  V30 55 H 6.159168 3.012352 2.636933 0
M  V30 56 H 5.017412 1.625753 2.650720 0
M  V30 57 H 6.302866 1.714766 1.400436 0
M  V30 58 H 6.116565 4.678614 0.771135 0
M  V30 59 H 4.846059 4.695412 -0.473499 0
M  V30 60 H 6.118546 3.427584 -0.520602 0
M  V30 61 H 3.027458 3.228926 2.571760 0
M  V30 62 H 4.171945 4.617011 2.579094 0
M  V30 63 H 2.921980 4.494625 1.303780 0
M  V30 END ATOM
M  V30 BEGIN BOND
M  V30 1 2 1 21
M  V30 2 2 2 22
M  V30 3 1 10 3
M  V30 4 1 3 22
M  V30 5 1 3 32
M  V30 6 1 4 21
M  V30 7 1 4 24
M  V30 8 1 4 33
M  V30 9 1 6 5
M  V30 10 1 7 5
M  V30 11 1 5 12
M  V30 12 1 5 28
M  V30 13 1 8 6
M  V30 14 1 6 11
M  V30 15 1 6 29
M  V30 16 1 9 7
M  V30 17 1 15 7
M  V30 18 1 7 30
M  V30 19 1 8 10
M  V30 20 1 8 17
M  V30 21 1 8 19
M  V30 22 1 9 13
M  V30 23 1 14 9
M  V30 24 1 9 20
M  V30 25 1 16 10
M  V30 26 1 10 31
M  V30 27 1 11 14
M  V30 28 1 11 34
M  V30 29 1 11 35
M  V30 30 1 12 16
M  V30 31 1 12 36
M  V30 32 1 12 37
M  V30 33 1 13 18
M  V30 34 1 13 21
M  V30 35 1 13 38
M  V30 36 1 14 39
M  V30 37 1 14 40
M  V30 38 1 18 15
M  V30 39 1 15 41
M  V30 40 1 15 42
M  V30 41 1 16 43
M  V30 42 1 16 44
M  V30 43 2 17 23
M  V30 44 1 17 45
M  V30 45 1 18 46
M  V30 46 1 18 47
M  V30 47 1 19 48
M  V30 48 1 19 49
M  V30 49 1 19 50
M  V30 50 1 20 51
M  V30 51 1 20 52
M  V30 52 1 20 53
M  V30 53 1 23 22
M  V30 54 1 23 54
M  V30 55 1 24 25
M  V30 56 1 24 26
M  V30 57 1 24 27
M  V30 58 1 25 55
M  V30 59 1 25 56
M  V30 60 1 25 57
M  V30 61 1 26 58
M  V30 62 1 26 59
M  V30 63 1 26 60
M  V30 64 1 27 61
M  V30 65 1 27 62
M  V30 66 1 27 63
M  V30 END BOND
M  V30 END CTAB
M  END
