
  Chem3D Core 15.010021516063D

 67 70  0  0  0  0  0  0  0  0999 V2000
   -1.3251   -1.8264   -0.5283 F   0  0  0  0  0  0  0  0  0  0  0  0
   -1.9919   -5.6437    1.3463 F   0  0  0  0  0  0  0  0  0  0  0  0
    2.7025   -0.1075   -0.5904 O   0  0  0  0  0  0  0  0  0  0  0  0
   -1.6253    0.5061    2.0867 O   0  0  0  0  0  0  0  0  0  0  0  0
    3.9204    1.0414    2.5546 O   0  0  0  0  0  0  0  0  0  0  0  0
    2.3550    2.7123    0.0599 O   0  0  0  0  0  0  0  0  0  0  0  0
    4.9606   -0.1518   -0.8976 O   0  0  0  0  0  0  0  0  0  0  0  0
   -5.3969   -3.9018   -1.5624 O   0  0  0  0  0  0  0  0  0  0  0  0
    1.1138    4.1672   -1.1335 O   0  0  0  0  0  0  0  0  0  0  0  0
    1.0049   -1.8394    1.0839 C   0  0  0  0  0  0  0  0  0  0  0  0
   -0.3922   -2.3055    1.5287 C   0  0  0  0  0  0  0  0  0  0  0  0
    1.2928   -0.3427    1.3270 C   0  0  0  0  0  0  0  0  0  0  0  0
   -1.4688   -1.5211    0.7677 C   0  0  0  0  0  0  0  0  0  0  0  0
    2.7706   -0.2119    0.8160 C   0  0  0  0  0  0  0  0  0  0  0  0
   -2.8889   -2.0000    1.1342 C   0  0  0  0  0  0  0  0  0  0  0  0
   -1.2332   -0.0165    0.8431 C   0  0  0  0  0  0  0  0  0  0  0  0
    2.2391   -2.5156    1.6794 C   0  0  0  0  0  0  0  0  0  0  0  0
    0.2074    0.4214    0.5340 C   0  0  0  0  0  0  0  0  0  0  0  0
    3.3843   -1.6040    1.1832 C   0  0  0  0  0  0  0  0  0  0  0  0
   -0.5384   -3.8273    1.3217 C   0  0  0  0  0  0  0  0  0  0  0  0
   -2.9299   -3.4969    0.8682 C   0  0  0  0  0  0  0  0  0  0  0  0
    3.4650    1.0309    1.4309 C   0  0  0  0  0  0  0  0  0  0  0  0
   -1.9298   -4.3161    1.6523 C   0  0  0  0  0  0  0  0  0  0  0  0
    1.2063    0.0520    2.8220 C   0  0  0  0  0  0  0  0  0  0  0  0
   -3.9193   -1.3369    0.2472 C   0  0  0  0  0  0  0  0  0  0  0  0
   -3.3636   -1.7610    2.5844 C   0  0  0  0  0  0  0  0  0  0  0  0
   -3.7687   -4.0479   -0.0247 C   0  0  0  0  0  0  0  0  0  0  0  0
    4.5950   -1.6853    2.1234 C   0  0  0  0  0  0  0  0  0  0  0  0
    3.5871    2.3407    0.6331 C   0  0  0  0  0  0  0  0  0  0  0  0
    3.8363   -0.1613   -1.3424 C   0  0  0  0  0  0  0  0  0  0  0  0
   -4.7078   -1.9995   -0.6088 C   0  0  0  0  0  0  0  0  0  0  0  0
   -4.6605   -3.3463   -0.7720 C   0  0  0  0  0  0  0  0  0  0  0  0
    3.4777   -0.2249   -2.8130 C   0  0  0  0  0  0  0  0  0  0  0  0
    2.1828    3.8693   -0.6425 C   0  0  0  0  0  0  0  0  0  0  0  0
    3.4118    4.7520   -0.7773 C   0  0  0  0  0  0  0  0  0  0  0  0
    1.0592   -2.0380   -0.0167 H   0  0  0  0  0  0  0  0  0  0  0  0
   -0.4994   -2.1189    2.6212 H   0  0  0  0  0  0  0  0  0  0  0  0
   -2.4909    0.9158    2.0169 H   0  0  0  0  0  0  0  0  0  0  0  0
   -1.8927    0.5009    0.1050 H   0  0  0  0  0  0  0  0  0  0  0  0
    2.1695   -2.5339    2.7894 H   0  0  0  0  0  0  0  0  0  0  0  0
    2.3654   -3.5687    1.3390 H   0  0  0  0  0  0  0  0  0  0  0  0
    0.3582    0.2780   -0.5614 H   0  0  0  0  0  0  0  0  0  0  0  0
    0.3020    1.5154    0.7160 H   0  0  0  0  0  0  0  0  0  0  0  0
    3.7313   -2.0900    0.2348 H   0  0  0  0  0  0  0  0  0  0  0  0
    0.1965   -4.3757    1.9574 H   0  0  0  0  0  0  0  0  0  0  0  0
   -0.3048   -4.0815    0.2605 H   0  0  0  0  0  0  0  0  0  0  0  0
   -2.1309   -4.2084    2.7327 H   0  0  0  0  0  0  0  0  0  0  0  0
    0.2640   -0.2523    3.3173 H   0  0  0  0  0  0  0  0  0  0  0  0
    2.0046   -0.4071    3.4420 H   0  0  0  0  0  0  0  0  0  0  0  0
    1.2754    1.1556    2.9506 H   0  0  0  0  0  0  0  0  0  0  0  0
   -4.0364   -0.2433    0.3285 H   0  0  0  0  0  0  0  0  0  0  0  0
   -4.3079   -2.3182    2.7840 H   0  0  0  0  0  0  0  0  0  0  0  0
   -2.6260   -2.0828    3.3498 H   0  0  0  0  0  0  0  0  0  0  0  0
   -3.6020   -0.6960    2.7934 H   0  0  0  0  0  0  0  0  0  0  0  0
   -3.7428   -5.1400   -0.1770 H   0  0  0  0  0  0  0  0  0  0  0  0
    5.4318   -1.0378    1.7775 H   0  0  0  0  0  0  0  0  0  0  0  0
    4.9879   -2.7274    2.1643 H   0  0  0  0  0  0  0  0  0  0  0  0
    4.3359   -1.4151    3.1705 H   0  0  0  0  0  0  0  0  0  0  0  0
    4.3513    2.2108   -0.1623 H   0  0  0  0  0  0  0  0  0  0  0  0
    3.9190    3.1508    1.3212 H   0  0  0  0  0  0  0  0  0  0  0  0
   -5.4318   -1.4167   -1.2057 H   0  0  0  0  0  0  0  0  0  0  0  0
    2.8791    0.6688   -3.1021 H   0  0  0  0  0  0  0  0  0  0  0  0
    4.3960   -0.2453   -3.4420 H   0  0  0  0  0  0  0  0  0  0  0  0
    2.8884   -1.1449   -3.0282 H   0  0  0  0  0  0  0  0  0  0  0  0
    4.2442    4.2204   -1.2894 H   0  0  0  0  0  0  0  0  0  0  0  0
    3.1750    5.6437   -1.4010 H   0  0  0  0  0  0  0  0  0  0  0  0
    3.7469    5.1366    0.2114 H   0  0  0  0  0  0  0  0  0  0  0  0
 13  1  1  0      
 23  2  1  0      
 14  3  1  0      
  3 30  1  0      
 16  4  1  0      
  4 38  1  0      
  5 22  2  0      
  6 29  1  0      
  6 34  1  0      
  7 30  2  0      
  8 32  2  0      
  9 34  2  0      
 11 10  1  0      
 10 12  1  0      
 10 17  1  0      
 10 36  1  0      
 11 13  1  0      
 20 11  1  0      
 11 37  1  0      
 14 12  1  0      
 12 18  1  0      
 12 24  1  0      
 13 15  1  0      
 16 13  1  0      
 19 14  1  0      
 14 22  1  0      
 21 15  1  0      
 15 25  1  0      
 15 26  1  0      
 18 16  1  0      
 16 39  1  0      
 17 19  1  0      
 17 40  1  0      
 17 41  1  0      
 18 42  1  0      
 18 43  1  0      
 19 28  1  0      
 19 44  1  0      
 23 20  1  0      
 20 45  1  0      
 20 46  1  0      
 21 23  1  0      
 27 21  2  0      
 22 29  1  0      
 23 47  1  0      
 24 48  1  0      
 24 49  1  0      
 24 50  1  0      
 25 31  2  0      
 25 51  1  0      
 26 52  1  0      
 26 53  1  0      
 26 54  1  0      
 32 27  1  0      
 27 55  1  0      
 28 56  1  0      
 28 57  1  0      
 28 58  1  0      
 29 59  1  0      
 29 60  1  0      
 30 33  1  0      
 31 32  1  0      
 31 61  1  0      
 33 62  1  0      
 33 63  1  0      
 33 64  1  0      
 34 35  1  0      
 35 65  1  0      
 35 66  1  0      
 35 67  1  0      
M  END
