
  Chem3D Core 15.010021516073D

 47 50  0  0  0  0  0  0  0  0999 V2000
    1.0987   -2.1031    2.6047 Cl  0  0  0  0  0  0  0  0  0  0  0  0
    1.3316    3.0976    0.1276 S   0  0  0  0  0  0  0  0  0  0  0  0
   -1.7743   -3.5692   -1.3301 F   0  0  0  0  0  0  0  0  0  0  0  0
    2.4330   -1.0457   -0.6646 O   0  0  0  0  0  0  0  0  0  0  0  0
    4.2660    2.3361   -3.5200 O   0  0  0  0  0  0  0  0  0  0  0  0
    3.4331    0.2543   -3.2177 O   0  0  0  0  0  0  0  0  0  0  0  0
   -3.6381   -1.4451    1.0929 O   0  0  0  0  0  0  0  0  0  0  0  0
   -0.9074    0.5445    3.1915 O   0  0  0  0  0  0  0  0  0  0  0  0
    1.8317    1.1165   -1.1937 N   0  0  0  0  0  0  0  0  0  0  0  0
    0.2543    0.4300    1.3444 N   0  0  0  0  0  0  0  0  0  0  0  0
   -2.7437   -2.2285    0.5253 N   0  0  0  0  0  0  0  0  0  0  0  0
    0.5786    1.7431   -0.8228 C   0  0  0  0  0  0  0  0  0  0  0  0
    0.3143    0.3264   -0.1176 C   0  0  0  0  0  0  0  0  0  0  0  0
    3.0535    1.8372   -1.4772 C   0  0  0  0  0  0  0  0  0  0  0  0
    1.6814   -0.1125   -0.6606 C   0  0  0  0  0  0  0  0  0  0  0  0
    2.6914    3.3049   -1.1179 C   0  0  0  0  0  0  0  0  0  0  0  0
    3.6578    1.5342   -2.8456 C   0  0  0  0  0  0  0  0  0  0  0  0
   -0.7575   -0.0340    2.1411 C   0  0  0  0  0  0  0  0  0  0  0  0
    3.8723    4.0543   -0.4797 C   0  0  0  0  0  0  0  0  0  0  0  0
    2.1304    4.1155   -2.3028 C   0  0  0  0  0  0  0  0  0  0  0  0
   -1.6923   -0.8794    1.6379 C   0  0  0  0  0  0  0  0  0  0  0  0
   -1.5473   -1.9931    0.8838 C   0  0  0  0  0  0  0  0  0  0  0  0
   -3.0094   -0.6331    1.7607 C   0  0  0  0  0  0  0  0  0  0  0  0
   -0.5066   -2.7688    0.4844 C   0  0  0  0  0  0  0  0  0  0  0  0
    0.6955   -2.8707    1.1061 C   0  0  0  0  0  0  0  0  0  0  0  0
   -0.6645   -3.5664   -0.6040 C   0  0  0  0  0  0  0  0  0  0  0  0
   -3.6856    0.5356    2.4205 C   0  0  0  0  0  0  0  0  0  0  0  0
    1.6670   -3.6885    0.6597 C   0  0  0  0  0  0  0  0  0  0  0  0
    0.3140   -4.3615   -1.0652 C   0  0  0  0  0  0  0  0  0  0  0  0
    1.4935   -4.4280   -0.4408 C   0  0  0  0  0  0  0  0  0  0  0  0
   -0.0375    1.9713   -1.7161 H   0  0  0  0  0  0  0  0  0  0  0  0
    3.1641   -0.3177   -2.4835 H   0  0  0  0  0  0  0  0  0  0  0  0
    0.9346    1.0170    1.8246 H   0  0  0  0  0  0  0  0  0  0  0  0
   -0.5152   -0.2194   -0.6117 H   0  0  0  0  0  0  0  0  0  0  0  0
    3.8236    1.4804   -0.7490 H   0  0  0  0  0  0  0  0  0  0  0  0
    4.7222    4.1288   -1.1952 H   0  0  0  0  0  0  0  0  0  0  0  0
    3.5871    5.0906   -0.1879 H   0  0  0  0  0  0  0  0  0  0  0  0
    4.2499    3.5405    0.4332 H   0  0  0  0  0  0  0  0  0  0  0  0
    2.9269    4.4155   -3.0175 H   0  0  0  0  0  0  0  0  0  0  0  0
    1.3662    3.5492   -2.8800 H   0  0  0  0  0  0  0  0  0  0  0  0
    1.6613    5.0653   -1.9587 H   0  0  0  0  0  0  0  0  0  0  0  0
   -4.7222    0.6595    2.0332 H   0  0  0  0  0  0  0  0  0  0  0  0
   -3.7515    0.3731    3.5200 H   0  0  0  0  0  0  0  0  0  0  0  0
   -3.1501    1.4904    2.2197 H   0  0  0  0  0  0  0  0  0  0  0  0
    2.6308   -3.7836    1.1900 H   0  0  0  0  0  0  0  0  0  0  0  0
    0.1504   -4.9705   -1.9705 H   0  0  0  0  0  0  0  0  0  0  0  0
    2.2927   -5.0906   -0.8117 H   0  0  0  0  0  0  0  0  0  0  0  0
  1 25  1  0      
  2 12  1  0      
 16  2  1  0      
  3 26  1  0      
  4 15  2  0      
  5 17  2  0      
  6 17  1  0      
  6 32  1  0      
  7 11  1  0      
 23  7  1  0      
  8 18  2  0      
 12  9  1  0      
  9 14  1  0      
 15  9  1  0      
 13 10  1  0      
 10 18  1  0      
 10 33  1  0      
 11 22  2  0      
 12 13  1  0      
 12 31  1  0      
 13 15  1  0      
 13 34  1  0      
 16 14  1  0      
 14 17  1  0      
 14 35  1  0      
 16 19  1  0      
 16 20  1  0      
 18 21  1  0      
 19 36  1  0      
 19 37  1  0      
 19 38  1  0      
 20 39  1  0      
 20 40  1  0      
 20 41  1  0      
 22 21  1  0      
 23 21  2  0      
 22 24  1  0      
 23 27  1  0      
 24 25  1  0      
 24 26  2  0      
 25 28  2  0      
 29 26  1  0      
 27 42  1  0      
 27 43  1  0      
 27 44  1  0      
 28 30  1  0      
 28 45  1  0      
 30 29  2  0      
 29 46  1  0      
 30 47  1  0      
M  END
