
  Chem3D Core 15.008171513373D

 34 36  0  0  0  0  0  0  0  0999 V2000
    3.3042    4.4707   -2.4378 F   0  0  0  0  0  0  0  0  0  0  0  0
    2.5335    3.4386   -2.1346 C   0  0  0  0  0  0  0  0  0  0  0  0
    3.0709    2.2717   -1.7549 C   0  0  0  0  0  0  0  0  0  0  0  0
    2.2802    1.2323   -1.4457 C   0  0  0  0  0  0  0  0  0  0  0  0
    0.9358    1.3091   -1.5078 C   0  0  0  0  0  0  0  0  0  0  0  0
    0.4097    2.4965   -1.8791 C   0  0  0  0  0  0  0  0  0  0  0  0
    1.1981    3.5394   -2.1879 C   0  0  0  0  0  0  0  0  0  0  0  0
   -0.9003    2.6826   -1.9422 F   0  0  0  0  0  0  0  0  0  0  0  0
    0.0269    0.1183   -1.1542 C   0  0  0  0  0  0  0  0  0  0  0  0
    0.7610   -1.2383   -1.1305 C   0  0  0  0  0  0  0  0  0  0  0  0
   -0.1150   -2.4265   -1.0702 N   0  0  0  0  0  0  0  0  0  0  0  0
   -0.0458   -3.2314   -0.0917 C   0  0  0  0  0  0  0  0  0  0  0  0
   -0.8652   -4.1767   -0.2714 N   0  0  0  0  0  0  0  0  0  0  0  0
   -1.3902   -3.8840   -1.3862 C   0  0  0  0  0  0  0  0  0  0  0  0
   -0.9422   -2.8161   -1.8990 N   0  0  0  0  0  0  0  0  0  0  0  0
   -0.6516    0.4121    0.1972 C   0  0  0  0  0  0  0  0  0  0  0  0
   -1.6787   -0.5660    0.6018 N   0  0  0  0  0  0  0  0  0  0  0  0
   -1.6275   -1.1199    1.7421 C   0  0  0  0  0  0  0  0  0  0  0  0
   -2.6215   -1.8893    1.8744 N   0  0  0  0  0  0  0  0  0  0  0  0
   -3.2373   -1.7432    0.7772 C   0  0  0  0  0  0  0  0  0  0  0  0
   -2.6792   -0.9325   -0.0203 N   0  0  0  0  0  0  0  0  0  0  0  0
   -0.9676    0.0098   -2.1531 O   0  0  0  0  0  0  0  0  0  0  0  0
    4.1675    2.1709   -1.6938 H   0  0  0  0  0  0  0  0  0  0  0  0
    2.7887    0.3084   -1.1327 H   0  0  0  0  0  0  0  0  0  0  0  0
    0.7425    4.4981   -2.4871 H   0  0  0  0  0  0  0  0  0  0  0  0
    1.3543   -1.3421   -2.0711 H   0  0  0  0  0  0  0  0  0  0  0  0
    1.4841   -1.2501   -0.2824 H   0  0  0  0  0  0  0  0  0  0  0  0
    0.6204   -3.1166    0.7703 H   0  0  0  0  0  0  0  0  0  0  0  0
   -2.1651   -4.4981   -1.8635 H   0  0  0  0  0  0  0  0  0  0  0  0
   -1.1581    1.4046    0.1654 H   0  0  0  0  0  0  0  0  0  0  0  0
    0.1476    0.5054    0.9696 H   0  0  0  0  0  0  0  0  0  0  0  0
   -0.8424   -0.9514    2.4871 H   0  0  0  0  0  0  0  0  0  0  0  0
   -4.1675   -2.2742    0.5364 H   0  0  0  0  0  0  0  0  0  0  0  0
   -1.5614   -0.7150   -1.9581 H   0  0  0  0  0  0  0  0  0  0  0  0
  1  2  1  0      
  2  3  1  0      
  2  7  2  0      
  3  4  2  0      
  3 23  1  0      
  4  5  1  0      
  4 24  1  0      
  5  6  2  0      
  5  9  1  0      
  6  7  1  0      
  6  8  1  0      
  7 25  1  0      
  9 10  1  0      
  9 16  1  0      
  9 22  1  0      
 10 11  1  0      
 10 26  1  0      
 10 27  1  0      
 12 11  1  0      
 11 15  1  0      
 12 13  2  0      
 12 28  1  0      
 14 13  1  0      
 15 14  2  0      
 14 29  1  0      
 16 17  1  0      
 16 30  1  0      
 16 31  1  0      
 18 17  1  0      
 17 21  1  0      
 18 19  2  0      
 18 32  1  0      
 20 19  1  0      
 21 20  2  0      
 20 33  1  0      
 22 34  1  0      
M  END
