
  Chem3D Core 15.010021516083D

 61 64  0  0  0  0  0  0  0  0999 V2000
   -0.8593   -2.0525   -0.8341 F   0  0  0  0  0  0  0  0  0  0  0  0
    2.9493   -0.5592   -2.5346 O   0  0  0  0  0  0  0  0  0  0  0  0
   -0.2730    0.6409    1.3543 O   0  0  0  0  0  0  0  0  0  0  0  0
    5.2968    1.0107   -0.6322 O   0  0  0  0  0  0  0  0  0  0  0  0
    2.9491    2.9674   -0.9162 O   0  0  0  0  0  0  0  0  0  0  0  0
   -5.2968   -4.1730    1.1891 O   0  0  0  0  0  0  0  0  0  0  0  0
    1.3280    4.4787   -0.4996 O   0  0  0  0  0  0  0  0  0  0  0  0
    1.8789   -1.8975   -0.1797 C   0  0  0  0  0  0  0  0  0  0  0  0
    0.7357   -2.2761    0.7795 C   0  0  0  0  0  0  0  0  0  0  0  0
   -0.5640   -1.5680    0.3793 C   0  0  0  0  0  0  0  0  0  0  0  0
    2.1831   -0.3863   -0.2351 C   0  0  0  0  0  0  0  0  0  0  0  0
    3.3905   -0.3657   -1.2062 C   0  0  0  0  0  0  0  0  0  0  0  0
   -1.7635   -1.9360    1.2931 C   0  0  0  0  0  0  0  0  0  0  0  0
   -0.3477   -0.0734    0.1472 C   0  0  0  0  0  0  0  0  0  0  0  0
    0.8743    0.2728   -0.7152 C   0  0  0  0  0  0  0  0  0  0  0  0
    3.2574   -2.5331    0.0157 C   0  0  0  0  0  0  0  0  0  0  0  0
    0.5425   -3.8035    0.7756 C   0  0  0  0  0  0  0  0  0  0  0  0
   -1.8811   -3.4545    1.3807 C   0  0  0  0  0  0  0  0  0  0  0  0
    4.1930   -1.6273   -0.8119 C   0  0  0  0  0  0  0  0  0  0  0  0
    4.2149    0.9316   -1.1713 C   0  0  0  0  0  0  0  0  0  0  0  0
    2.6486    0.1968    1.1206 C   0  0  0  0  0  0  0  0  0  0  0  0
   -0.6107   -4.2145    1.6895 C   0  0  0  0  0  0  0  0  0  0  0  0
   -3.0665   -1.3751    0.6714 C   0  0  0  0  0  0  0  0  0  0  0  0
   -1.6582   -1.4485    2.7572 C   0  0  0  0  0  0  0  0  0  0  0  0
   -3.0524   -4.1130    1.3321 C   0  0  0  0  0  0  0  0  0  0  0  0
   -4.3357   -2.0098    1.2391 C   0  0  0  0  0  0  0  0  0  0  0  0
   -4.2724   -3.5258    1.2354 C   0  0  0  0  0  0  0  0  0  0  0  0
    3.6558    2.1860   -1.8549 C   0  0  0  0  0  0  0  0  0  0  0  0
    2.0848    3.9546   -1.2901 C   0  0  0  0  0  0  0  0  0  0  0  0
    2.1549    4.3754   -2.7481 C   0  0  0  0  0  0  0  0  0  0  0  0
    1.5499   -2.2265   -1.1980 H   0  0  0  0  0  0  0  0  0  0  0  0
    1.0259   -1.9784    1.8119 H   0  0  0  0  0  0  0  0  0  0  0  0
    2.6335   -1.4511   -2.6820 H   0  0  0  0  0  0  0  0  0  0  0  0
    0.0430    1.5347    1.2057 H   0  0  0  0  0  0  0  0  0  0  0  0
   -1.2387    0.3522   -0.3760 H   0  0  0  0  0  0  0  0  0  0  0  0
    0.9860    1.3768   -0.7683 H   0  0  0  0  0  0  0  0  0  0  0  0
    0.6455   -0.0514   -1.7572 H   0  0  0  0  0  0  0  0  0  0  0  0
    3.2960   -3.5927   -0.3259 H   0  0  0  0  0  0  0  0  0  0  0  0
    3.5290   -2.5136    1.0967 H   0  0  0  0  0  0  0  0  0  0  0  0
    0.3379   -4.1676   -0.2586 H   0  0  0  0  0  0  0  0  0  0  0  0
    1.4731   -4.3144    1.1187 H   0  0  0  0  0  0  0  0  0  0  0  0
    5.0983   -1.4135   -0.2012 H   0  0  0  0  0  0  0  0  0  0  0  0
    4.5550   -2.1591   -1.7225 H   0  0  0  0  0  0  0  0  0  0  0  0
    2.0002   -0.0730    1.9769 H   0  0  0  0  0  0  0  0  0  0  0  0
    3.6642   -0.1485    1.4112 H   0  0  0  0  0  0  0  0  0  0  0  0
    2.6851    1.3076    1.0927 H   0  0  0  0  0  0  0  0  0  0  0  0
   -0.3347   -4.0021    2.7490 H   0  0  0  0  0  0  0  0  0  0  0  0
   -0.7588   -5.3173    1.6211 H   0  0  0  0  0  0  0  0  0  0  0  0
   -3.1217   -0.2686    0.7944 H   0  0  0  0  0  0  0  0  0  0  0  0
   -3.0900   -1.5731   -0.4266 H   0  0  0  0  0  0  0  0  0  0  0  0
   -0.6623   -1.6452    3.2087 H   0  0  0  0  0  0  0  0  0  0  0  0
   -1.8698   -0.3648    2.8720 H   0  0  0  0  0  0  0  0  0  0  0  0
   -2.4035   -1.9569    3.4095 H   0  0  0  0  0  0  0  0  0  0  0  0
   -3.0390   -5.2142    1.4059 H   0  0  0  0  0  0  0  0  0  0  0  0
   -5.2207   -1.6729    0.6482 H   0  0  0  0  0  0  0  0  0  0  0  0
   -4.5052   -1.6792    2.2902 H   0  0  0  0  0  0  0  0  0  0  0  0
    2.9862    1.8869   -2.6880 H   0  0  0  0  0  0  0  0  0  0  0  0
    4.5016    2.7851   -2.2628 H   0  0  0  0  0  0  0  0  0  0  0  0
    1.6939    3.6084   -3.4095 H   0  0  0  0  0  0  0  0  0  0  0  0
    1.5807    5.3173   -2.9007 H   0  0  0  0  0  0  0  0  0  0  0  0
    3.1989    4.5867   -3.0689 H   0  0  0  0  0  0  0  0  0  0  0  0
 10  1  1  0      
 12  2  1  0      
  2 33  1  0      
 14  3  1  0      
  3 34  1  0      
  4 20  2  0      
  5 28  1  0      
  5 29  1  0      
  6 27  2  0      
  7 29  2  0      
  8  9  1  0      
  8 11  1  0      
  8 16  1  0      
  8 31  1  0      
  9 10  1  0      
  9 17  1  0      
  9 32  1  0      
 10 13  1  0      
 10 14  1  0      
 11 12  1  0      
 11 15  1  0      
 11 21  1  0      
 12 19  1  0      
 12 20  1  0      
 13 18  1  0      
 13 23  1  0      
 13 24  1  0      
 14 15  1  0      
 14 35  1  0      
 15 36  1  0      
 15 37  1  0      
 16 19  1  0      
 16 38  1  0      
 16 39  1  0      
 17 22  1  0      
 17 40  1  0      
 17 41  1  0      
 18 22  1  0      
 18 25  2  0      
 19 42  1  0      
 19 43  1  0      
 20 28  1  0      
 21 44  1  0      
 21 45  1  0      
 21 46  1  0      
 22 47  1  0      
 22 48  1  0      
 23 26  1  0      
 23 49  1  0      
 23 50  1  0      
 24 51  1  0      
 24 52  1  0      
 24 53  1  0      
 25 27  1  0      
 25 54  1  0      
 26 27  1  0      
 26 55  1  0      
 26 56  1  0      
 28 57  1  0      
 28 58  1  0      
 29 30  1  0      
 30 59  1  0      
 30 60  1  0      
 30 61  1  0      
M  END
