
  Chem3D Core 15.001061617233D

 37 39  0  0  0  0  0  0  0  0999 V2000
   -4.2117    0.5954   -1.0921 P   0  0  0  0  0  0  0  0  0  0  0  0
    6.0910   -0.8193    1.3090 F   0  0  0  0  0  0  0  0  0  0  0  0
   -0.0220   -0.3579   -0.9422 O   0  0  0  0  0  0  0  0  0  0  0  0
    0.3504   -0.7469    1.9238 O   0  0  0  0  0  0  0  0  0  0  0  0
    0.3357   -3.4761   -0.3838 O   0  0  0  0  0  0  0  0  0  0  0  0
   -2.7904   -0.1086   -1.3067 O   0  0  0  0  0  0  0  0  0  0  0  0
   -4.2294    2.2031   -1.2893 O   0  0  0  0  0  0  0  0  0  0  0  0
   -5.3521    0.2225   -2.1802 O   0  0  0  0  0  0  0  0  0  0  0  0
   -4.8606    0.3642    0.2236 O   0  0  0  0  0  0  0  0  0  0  0  0
    1.8993    0.5761    0.2069 N   0  0  0  0  0  0  0  0  0  0  0  0
    2.2489    2.5304    0.7762 N   0  0  0  0  0  0  0  0  0  0  0  0
    4.0115   -0.3030    0.7185 N   0  0  0  0  0  0  0  0  0  0  0  0
    5.3777    1.2767    1.5408 N   0  0  0  0  0  0  0  0  0  0  0  0
    4.6919    3.3883    1.7973 N   0  0  0  0  0  0  0  0  0  0  0  0
    0.8541   -1.5300    0.8683 C   0  0  0  0  0  0  0  0  0  0  0  0
   -0.2485   -2.3763    0.2742 C   0  0  0  0  0  0  0  0  0  0  0  0
    1.2006   -0.6167   -0.2907 C   0  0  0  0  0  0  0  0  0  0  0  0
   -0.8881   -1.4446   -0.7470 C   0  0  0  0  0  0  0  0  0  0  0  0
   -2.2478   -0.9213   -0.2950 C   0  0  0  0  0  0  0  0  0  0  0  0
    3.0981    0.5590    0.6055 C   0  0  0  0  0  0  0  0  0  0  0  0
    1.3898    1.7302    0.3024 C   0  0  0  0  0  0  0  0  0  0  0  0
    3.2950    1.8380    0.9668 C   0  0  0  0  0  0  0  0  0  0  0  0
    4.4963    2.1846    1.4524 C   0  0  0  0  0  0  0  0  0  0  0  0
    5.1270    0.0839    1.1832 C   0  0  0  0  0  0  0  0  0  0  0  0
    0.9667   -0.0259    2.0888 H   0  0  0  0  0  0  0  0  0  0  0  0
   -0.3433   -4.0981   -0.6539 H   0  0  0  0  0  0  0  0  0  0  0  0
   -4.5015    2.5962   -0.4772 H   0  0  0  0  0  0  0  0  0  0  0  0
   -6.0910   -0.1365   -1.7182 H   0  0  0  0  0  0  0  0  0  0  0  0
    5.6230    3.6843    2.1802 H   0  0  0  0  0  0  0  0  0  0  0  0
    3.9247    4.0981    1.7017 H   0  0  0  0  0  0  0  0  0  0  0  0
    1.7189   -2.1083    1.2602 H   0  0  0  0  0  0  0  0  0  0  0  0
   -0.9505   -2.7829    1.0334 H   0  0  0  0  0  0  0  0  0  0  0  0
    1.8639   -1.1430   -1.0185 H   0  0  0  0  0  0  0  0  0  0  0  0
   -1.0145   -1.9687   -1.7250 H   0  0  0  0  0  0  0  0  0  0  0  0
   -2.1371   -0.3291    0.6430 H   0  0  0  0  0  0  0  0  0  0  0  0
   -2.9351   -1.7803   -0.1094 H   0  0  0  0  0  0  0  0  0  0  0  0
    0.3628    1.9871    0.0231 H   0  0  0  0  0  0  0  0  0  0  0  0
  1  6  1  0      
  1  7  1  0      
  1  8  1  0      
  1  9  2  0      
  2 24  1  0      
 17  3  1  0      
 18  3  1  0      
 15  4  1  0      
  4 25  1  0      
 16  5  1  0      
  5 26  1  0      
  6 19  1  0      
  7 27  1  0      
  8 28  1  0      
 17 10  1  0      
 20 10  1  0      
 21 10  1  0      
 21 11  2  0      
 11 22  1  0      
 12 20  1  0      
 24 12  2  0      
 23 13  2  0      
 13 24  1  0      
 14 23  1  0      
 14 29  1  0      
 14 30  1  0      
 15 16  1  0      
 17 15  1  0      
 15 31  1  0      
 16 18  1  0      
 16 32  1  0      
 17 33  1  0      
 18 19  1  0      
 18 34  1  0      
 19 35  1  0      
 19 36  1  0      
 22 20  2  0      
 21 37  1  0      
 22 23  1  0      
M  END
