
  Chem3D Core 15.008171513363D

 12 12  0  0  0  0  0  0  0  0999 V2000
   -0.1649    2.5527   -0.2987 F   0  0  0  0  0  0  0  0  0  0  0  0
   -0.0078    1.2428   -0.3415 C   0  0  0  0  0  0  0  0  0  0  0  0
    1.1490    0.7359   -0.7833 C   0  0  0  0  0  0  0  0  0  0  0  0
    1.3528   -0.6171   -0.8336 N   0  0  0  0  0  0  0  0  0  0  0  0
    0.2298   -1.4953   -0.5853 C   0  0  0  0  0  0  0  0  0  0  0  0
    0.1090   -2.5527   -1.1566 O   0  0  0  0  0  0  0  0  0  0  0  0
   -0.7466   -1.0337    0.3914 N   0  0  0  0  0  0  0  0  0  0  0  0
   -1.1333    0.3508    0.1076 C   0  0  0  0  0  0  0  0  0  0  0  0
   -2.2688    0.7459    0.2252 O   0  0  0  0  0  0  0  0  0  0  0  0
    1.9485    1.4166   -1.1111 H   0  0  0  0  0  0  0  0  0  0  0  0
    2.2688   -0.9947   -1.0399 H   0  0  0  0  0  0  0  0  0  0  0  0
   -1.1065   -1.5895    1.1566 H   0  0  0  0  0  0  0  0  0  0  0  0
  1  2  1  0      
  2  3  2  0      
  2  8  1  0      
  3  4  1  0      
  3 10  1  0      
  4  5  1  0      
  4 11  1  0      
  5  6  2  0      
  5  7  1  0      
  7  8  1  0      
  7 12  1  0      
  8  9  2  0      
M  END
