
  Chem3D Core 15.011301513483D

 37 41  0  0  0  0  0  0  0  0999 V2000
    4.6579    0.3026   -1.8876 O   0  0  0  0  0  0  0  0  0  0  0  0
    3.3304    0.0072   -1.8732 C   0  0  0  0  0  0  0  0  0  0  0  0
    2.8893   -1.2562   -1.9695 C   0  0  0  0  0  0  0  0  0  0  0  0
    1.5764   -1.5239   -1.9473 C   0  0  0  0  0  0  0  0  0  0  0  0
    0.6655   -0.5401   -1.8386 C   0  0  0  0  0  0  0  0  0  0  0  0
    1.0815    0.7360   -1.7214 C   0  0  0  0  0  0  0  0  0  0  0  0
    2.4068    0.9730   -1.7433 C   0  0  0  0  0  0  0  0  0  0  0  0
    0.2207    1.7845   -1.5631 O   0  0  0  0  0  0  0  0  0  0  0  0
   -1.0870    1.6051   -1.9144 C   0  0  0  0  0  0  0  0  0  0  0  0
   -1.6485    0.3873   -2.0445 C   0  0  0  0  0  0  0  0  0  0  0  0
   -0.8162   -0.8561   -1.8042 C   0  0  0  0  0  0  0  0  0  0  0  0
   -1.1464   -1.8892   -2.7478 O   0  0  0  0  0  0  0  0  0  0  0  0
   -1.6353   -2.9470   -2.0170 C   0  0  0  0  0  0  0  0  0  0  0  0
   -2.0032   -3.9805   -2.5374 O   0  0  0  0  0  0  0  0  0  0  0  0
   -1.6590   -2.7099   -0.6836 C   0  0  0  0  0  0  0  0  0  0  0  0
   -1.1837   -1.4797   -0.4839 C   0  0  0  0  0  0  0  0  0  0  0  0
   -1.0942   -0.9808    0.7553 C   0  0  0  0  0  0  0  0  0  0  0  0
   -1.4961   -1.7570    1.7771 C   0  0  0  0  0  0  0  0  0  0  0  0
   -1.9740   -2.9972    1.5625 C   0  0  0  0  0  0  0  0  0  0  0  0
   -2.0644   -3.4989    0.3180 C   0  0  0  0  0  0  0  0  0  0  0  0
   -2.9549    0.2922   -2.3504 C   0  0  0  0  0  0  0  0  0  0  0  0
   -3.7020    1.3855   -2.5559 C   0  0  0  0  0  0  0  0  0  0  0  0
   -3.1639    2.6100   -2.4513 C   0  0  0  0  0  0  0  0  0  0  0  0
   -1.8640    2.6847   -2.1237 C   0  0  0  0  0  0  0  0  0  0  0  0
   -3.9036    3.7339   -2.6497 O   0  0  0  0  0  0  0  0  0  0  0  0
    4.7706    1.2619   -1.7889 H   0  0  0  0  0  0  0  0  0  0  0  0
    3.6167   -2.0798   -2.0620 H   0  0  0  0  0  0  0  0  0  0  0  0
    1.2569   -2.5766   -2.0160 H   0  0  0  0  0  0  0  0  0  0  0  0
    2.7550    2.0154   -1.6443 H   0  0  0  0  0  0  0  0  0  0  0  0
   -0.7025    0.0342    0.9251 H   0  0  0  0  0  0  0  0  0  0  0  0
   -1.4323   -1.3692    2.8080 H   0  0  0  0  0  0  0  0  0  0  0  0
   -2.2968   -3.6124    2.4194 H   0  0  0  0  0  0  0  0  0  0  0  0
   -2.4549   -4.5128    0.1393 H   0  0  0  0  0  0  0  0  0  0  0  0
   -3.4393   -0.6945   -2.4335 H   0  0  0  0  0  0  0  0  0  0  0  0
   -4.7706    1.2816   -2.8080 H   0  0  0  0  0  0  0  0  0  0  0  0
   -1.4117    3.6854   -2.0155 H   0  0  0  0  0  0  0  0  0  0  0  0
   -3.3409    4.5128   -2.5108 H   0  0  0  0  0  0  0  0  0  0  0  0
  1  2  1  0      
  1 26  1  0      
  2  3  1  0      
  2  7  2  0      
  3  4  2  0      
  3 27  1  0      
  4  5  1  0      
  4 28  1  0      
  5  6  2  0      
  5 11  1  0      
  6  7  1  0      
  6  8  1  0      
  7 29  1  0      
  8  9  1  0      
  9 10  1  0      
  9 24  2  0      
 10 11  1  0      
 10 21  2  0      
 11 12  1  0      
 11 16  1  0      
 12 13  1  0      
 13 14  2  0      
 13 15  1  0      
 15 16  1  0      
 15 20  2  0      
 16 17  2  0      
 17 18  1  0      
 17 30  1  0      
 18 19  2  0      
 18 31  1  0      
 19 20  1  0      
 19 32  1  0      
 20 33  1  0      
 21 22  1  0      
 21 34  1  0      
 22 23  2  0      
 22 35  1  0      
 23 24  1  0      
 23 25  1  0      
 24 36  1  0      
 25 37  1  0      
M  END
