
  Chem3D Core 15.010021516103D

 31 32  0  0  0  0  0  0  0  0999 V2000
    2.4654    4.2938   -2.4585 O   0  0  0  0  0  0  0  0  0  0  0  0
    2.4946    3.2798   -1.7960 C   0  0  0  0  0  0  0  0  0  0  0  0
    2.7735    2.0531   -2.2887 O   0  0  0  0  0  0  0  0  0  0  0  0
    2.2207    3.2112   -0.2980 C   0  0  0  0  0  0  0  0  0  0  0  0
    3.5421    3.2883    0.4825 C   0  0  0  0  0  0  0  0  0  0  0  0
    1.3330    2.0253    0.0357 C   0  0  0  0  0  0  0  0  0  0  0  0
    1.8039    0.8581    0.4951 C   0  0  0  0  0  0  0  0  0  0  0  0
    0.9785   -0.1668    0.7591 C   0  0  0  0  0  0  0  0  0  0  0  0
   -0.3633   -0.1269    0.5872 C   0  0  0  0  0  0  0  0  0  0  0  0
   -1.1475   -1.2070    0.8680 C   0  0  0  0  0  0  0  0  0  0  0  0
   -2.4347   -1.3268    0.4691 C   0  0  0  0  0  0  0  0  0  0  0  0
   -3.2070   -2.3906    0.7451 C   0  0  0  0  0  0  0  0  0  0  0  0
   -2.7192   -3.4159    1.4525 C   0  0  0  0  0  0  0  0  0  0  0  0
   -1.4492   -3.3458    1.8669 C   0  0  0  0  0  0  0  0  0  0  0  0
   -0.6981   -2.2710    1.5752 C   0  0  0  0  0  0  0  0  0  0  0  0
   -0.8167    1.0605    0.1158 C   0  0  0  0  0  0  0  0  0  0  0  0
   -2.0965    1.3238   -0.0918 F   0  0  0  0  0  0  0  0  0  0  0  0
    0.0064    2.0902   -0.1473 C   0  0  0  0  0  0  0  0  0  0  0  0
    2.7323    1.3701   -1.6006 H   0  0  0  0  0  0  0  0  0  0  0  0
    1.6488    4.1367   -0.0339 H   0  0  0  0  0  0  0  0  0  0  0  0
    3.3652    3.2331    1.5813 H   0  0  0  0  0  0  0  0  0  0  0  0
    4.0666    4.2504    0.2788 H   0  0  0  0  0  0  0  0  0  0  0  0
    4.2478    2.4762    0.1975 H   0  0  0  0  0  0  0  0  0  0  0  0
    2.8863    0.7185    0.6454 H   0  0  0  0  0  0  0  0  0  0  0  0
    1.5115   -1.0683    1.0960 H   0  0  0  0  0  0  0  0  0  0  0  0
   -2.9438   -0.5783   -0.1516 H   0  0  0  0  0  0  0  0  0  0  0  0
   -4.2478   -2.4343    0.3801 H   0  0  0  0  0  0  0  0  0  0  0  0
   -3.3441   -4.2938    1.6843 H   0  0  0  0  0  0  0  0  0  0  0  0
   -1.0280   -4.1771    2.4585 H   0  0  0  0  0  0  0  0  0  0  0  0
    0.3146   -2.3261    2.0011 H   0  0  0  0  0  0  0  0  0  0  0  0
   -0.4275    3.0309   -0.5276 H   0  0  0  0  0  0  0  0  0  0  0  0
  1  2  2  0      
  2  3  1  0      
  2  4  1  0      
  3 19  1  0      
  4  5  1  0      
  4  6  1  0      
  4 20  1  0      
  5 21  1  0      
  5 22  1  0      
  5 23  1  0      
  6  7  1  0      
  6 18  2  0      
  7  8  2  0      
  7 24  1  0      
  8  9  1  0      
  8 25  1  0      
  9 10  1  0      
  9 16  2  0      
 10 11  1  0      
 10 15  2  0      
 11 12  2  0      
 11 26  1  0      
 12 13  1  0      
 12 27  1  0      
 13 14  2  0      
 13 28  1  0      
 14 15  1  0      
 14 29  1  0      
 15 30  1  0      
 16 17  1  0      
 16 18  1  0      
 18 31  1  0      
M  END
