
  Chem3D Core 15.011251516183D

 57 60  0  0  0  0  0  0  0  0999 V2000
    4.2006    2.4449    1.4747 S   0  0  0  0  0  0  0  0  0  0  0  0
   -1.8540   -0.7315   -1.3539 F   0  0  0  0  0  0  0  0  0  0  0  0
   -2.1411   -4.8839   -0.1835 F   0  0  0  0  0  0  0  0  0  0  0  0
    5.9285    4.1620    2.3755 F   0  0  0  0  0  0  0  0  0  0  0  0
    1.9802    1.2887   -0.8860 O   0  0  0  0  0  0  0  0  0  0  0  0
   -2.5289    1.0092    1.6340 O   0  0  0  0  0  0  0  0  0  0  0  0
    1.7046    3.2725    1.4601 O   0  0  0  0  0  0  0  0  0  0  0  0
   -5.5603   -3.0821   -3.0353 O   0  0  0  0  0  0  0  0  0  0  0  0
    0.3637   -0.7733    0.4037 C   0  0  0  0  0  0  0  0  0  0  0  0
   -0.9871   -1.4663    0.6565 C   0  0  0  0  0  0  0  0  0  0  0  0
    0.4374    0.6884    0.8899 C   0  0  0  0  0  0  0  0  0  0  0  0
   -2.1101   -0.6864   -0.0406 C   0  0  0  0  0  0  0  0  0  0  0  0
    1.8986    1.0490    0.5044 C   0  0  0  0  0  0  0  0  0  0  0  0
   -3.4774   -1.3830    0.1214 C   0  0  0  0  0  0  0  0  0  0  0  0
   -2.0699    0.7945    0.3233 C   0  0  0  0  0  0  0  0  0  0  0  0
   -0.6877    1.4444    0.1548 C   0  0  0  0  0  0  0  0  0  0  0  0
    1.6421   -1.3882    0.9745 C   0  0  0  0  0  0  0  0  0  0  0  0
    2.6831   -0.2481    0.8391 C   0  0  0  0  0  0  0  0  0  0  0  0
   -0.9284   -2.9347    0.1884 C   0  0  0  0  0  0  0  0  0  0  0  0
   -3.3117   -2.8081   -0.3840 C   0  0  0  0  0  0  0  0  0  0  0  0
   -2.2633   -3.6280    0.3337 C   0  0  0  0  0  0  0  0  0  0  0  0
    2.4098    2.3330    1.1719 C   0  0  0  0  0  0  0  0  0  0  0  0
    0.2772    0.8149    2.4271 C   0  0  0  0  0  0  0  0  0  0  0  0
   -4.5270   -0.7036   -0.7306 C   0  0  0  0  0  0  0  0  0  0  0  0
   -4.0695   -1.4461    1.5462 C   0  0  0  0  0  0  0  0  0  0  0  0
   -4.0200   -3.2945   -1.4167 C   0  0  0  0  0  0  0  0  0  0  0  0
    3.7667   -0.6364   -0.1826 C   0  0  0  0  0  0  0  0  0  0  0  0
   -5.1738   -1.2993   -1.7407 C   0  0  0  0  0  0  0  0  0  0  0  0
   -4.9478   -2.5855   -2.1111 C   0  0  0  0  0  0  0  0  0  0  0  0
    4.5838    4.1068    2.1063 C   0  0  0  0  0  0  0  0  0  0  0  0
    0.5020   -0.7865   -0.7066 H   0  0  0  0  0  0  0  0  0  0  0  0
   -1.1808   -1.4886    1.7526 H   0  0  0  0  0  0  0  0  0  0  0  0
    1.6369    0.5626   -1.4058 H   0  0  0  0  0  0  0  0  0  0  0  0
   -3.3992    1.4140    1.6219 H   0  0  0  0  0  0  0  0  0  0  0  0
   -2.7781    1.3625   -0.3256 H   0  0  0  0  0  0  0  0  0  0  0  0
   -0.4694    1.4789   -0.9380 H   0  0  0  0  0  0  0  0  0  0  0  0
   -0.7235    2.5067    0.4881 H   0  0  0  0  0  0  0  0  0  0  0  0
    1.4817   -1.6699    2.0408 H   0  0  0  0  0  0  0  0  0  0  0  0
    1.9426   -2.3131    0.4333 H   0  0  0  0  0  0  0  0  0  0  0  0
    3.1798   -0.1453    1.8354 H   0  0  0  0  0  0  0  0  0  0  0  0
   -0.1625   -3.4956    0.7747 H   0  0  0  0  0  0  0  0  0  0  0  0
   -0.6116   -2.9723   -0.8810 H   0  0  0  0  0  0  0  0  0  0  0  0
   -2.5354   -3.7256    1.3994 H   0  0  0  0  0  0  0  0  0  0  0  0
   -0.5495    0.2061    2.8439 H   0  0  0  0  0  0  0  0  0  0  0  0
    1.1846    0.4988    2.9852 H   0  0  0  0  0  0  0  0  0  0  0  0
    0.0672    1.8613    2.7382 H   0  0  0  0  0  0  0  0  0  0  0  0
   -4.7865    0.3403   -0.4872 H   0  0  0  0  0  0  0  0  0  0  0  0
   -4.9501   -2.1286    1.5751 H   0  0  0  0  0  0  0  0  0  0  0  0
   -3.3481   -1.8106    2.3082 H   0  0  0  0  0  0  0  0  0  0  0  0
   -4.4467   -0.4624    1.9004 H   0  0  0  0  0  0  0  0  0  0  0  0
   -3.8468   -4.3351   -1.7388 H   0  0  0  0  0  0  0  0  0  0  0  0
    4.5066    0.1792   -0.3390 H   0  0  0  0  0  0  0  0  0  0  0  0
    4.3348   -1.5303    0.1632 H   0  0  0  0  0  0  0  0  0  0  0  0
    3.3255   -0.8891   -1.1732 H   0  0  0  0  0  0  0  0  0  0  0  0
   -5.9285   -0.7117   -2.2932 H   0  0  0  0  0  0  0  0  0  0  0  0
    4.3371    4.8839    1.3626 H   0  0  0  0  0  0  0  0  0  0  0  0
    4.0278    4.3206    3.0353 H   0  0  0  0  0  0  0  0  0  0  0  0
  1 22  1  0      
  1 30  1  0      
 12  2  1  0      
 21  3  1  0      
  4 30  1  0      
 13  5  1  0      
  5 33  1  0      
 15  6  1  0      
  6 34  1  0      
  7 22  2  0      
  8 29  2  0      
 10  9  1  0      
  9 11  1  0      
  9 17  1  0      
  9 31  1  0      
 10 12  1  0      
 19 10  1  0      
 10 32  1  0      
 13 11  1  0      
 11 16  1  0      
 11 23  1  0      
 12 14  1  0      
 15 12  1  0      
 18 13  1  0      
 13 22  1  0      
 20 14  1  0      
 14 24  1  0      
 14 25  1  0      
 16 15  1  0      
 15 35  1  0      
 16 36  1  0      
 16 37  1  0      
 17 18  1  0      
 17 38  1  0      
 17 39  1  0      
 18 27  1  0      
 18 40  1  0      
 21 19  1  0      
 19 41  1  0      
 19 42  1  0      
 20 21  1  0      
 26 20  2  0      
 21 43  1  0      
 23 44  1  0      
 23 45  1  0      
 23 46  1  0      
 24 28  2  0      
 24 47  1  0      
 25 48  1  0      
 25 49  1  0      
 25 50  1  0      
 29 26  1  0      
 26 51  1  0      
 27 52  1  0      
 27 53  1  0      
 27 54  1  0      
 28 29  1  0      
 28 55  1  0      
 30 56  1  0      
 30 57  1  0      
M  END
