
  Chem3D Core 15.001061617103D

 30 30  0  0  0  0  0  0  0  0999 V2000
    0.4559   -2.3468    2.5562 F   0  0  0  0  0  0  0  0  0  0  0  0
   -1.2788   -3.3811    1.9155 F   0  0  0  0  0  0  0  0  0  0  0  0
   -1.3880   -1.9581    3.5279 F   0  0  0  0  0  0  0  0  0  0  0  0
    2.5733    0.6623    0.2864 O   0  0  0  0  0  0  0  0  0  0  0  0
   -4.7330   -1.0526    0.9758 O   0  5  0  0  0  0  0  0  0  0  0  0
   -3.5528   -2.3407    2.2586 O   0  0  0  0  0  0  0  0  0  0  0  0
    0.6398    1.3503   -0.6561 N   0  0  0  0  0  0  0  0  0  0  0  0
   -3.5212   -1.3728    1.3780 N   0  3  0  0  0  0  0  0  0  0  0  0
    2.7086    2.3866   -1.3877 C   0  0  0  0  0  0  0  0  0  0  0  0
   -0.3285    0.5999   -0.0833 C   0  0  0  0  0  0  0  0  0  0  0  0
    1.9968    1.3724   -0.4965 C   0  0  0  0  0  0  0  0  0  0  0  0
   -1.2094   -1.1002    1.3463 C   0  0  0  0  0  0  0  0  0  0  0  0
   -0.1891   -0.3928    0.8124 C   0  0  0  0  0  0  0  0  0  0  0  0
    4.2160    2.4839   -1.0992 C   0  0  0  0  0  0  0  0  0  0  0  0
    2.4700    2.0748   -2.8744 C   0  0  0  0  0  0  0  0  0  0  0  0
   -2.4772   -0.8004    0.9575 C   0  0  0  0  0  0  0  0  0  0  0  0
   -1.5867    0.8747   -0.4583 C   0  0  0  0  0  0  0  0  0  0  0  0
   -2.6219    0.1922    0.0523 C   0  0  0  0  0  0  0  0  0  0  0  0
   -0.8443   -2.2059    2.3456 C   0  0  0  0  0  0  0  0  0  0  0  0
    0.2330    2.0070   -1.3066 H   0  0  0  0  0  0  0  0  0  0  0  0
    2.2521    3.3811   -1.1521 H   0  0  0  0  0  0  0  0  0  0  0  0
    0.8197   -0.6635    1.1398 H   0  0  0  0  0  0  0  0  0  0  0  0
    4.6940    3.2732   -1.7233 H   0  0  0  0  0  0  0  0  0  0  0  0
    4.4094    2.7458   -0.0336 H   0  0  0  0  0  0  0  0  0  0  0  0
    4.7330    1.5221   -1.3192 H   0  0  0  0  0  0  0  0  0  0  0  0
    2.9670    2.8277   -3.5279 H   0  0  0  0  0  0  0  0  0  0  0  0
    1.3866    2.0829   -3.1324 H   0  0  0  0  0  0  0  0  0  0  0  0
    2.8760    1.0718   -3.1392 H   0  0  0  0  0  0  0  0  0  0  0  0
   -1.7826    1.6748   -1.1937 H   0  0  0  0  0  0  0  0  0  0  0  0
   -3.6162    0.4986   -0.3175 H   0  0  0  0  0  0  0  0  0  0  0  0
  1 19  1  0      
  2 19  1  0      
  3 19  1  0      
  4 11  2  0      
  5  8  1  0      
  6  8  2  0      
  7 10  1  0      
  7 11  1  0      
  7 20  1  0      
  8 16  1  0      
  9 11  1  0      
  9 14  1  0      
  9 15  1  0      
  9 21  1  0      
 10 13  1  0      
 10 17  2  0      
 13 12  2  0      
 12 16  1  0      
 12 19  1  0      
 13 22  1  0      
 14 23  1  0      
 14 24  1  0      
 14 25  1  0      
 15 26  1  0      
 15 27  1  0      
 15 28  1  0      
 16 18  2  0      
 18 17  1  0      
 17 29  1  0      
 18 30  1  0      
M  CHG  2   5  -1   8   1
M  END
