
  Chem3D Core 14.008141513373D

 80 85  0  0  0  0  0  0  0  0999 V2000
   -7.3085   -0.9829   -0.7401 O   0  0  0  0  0  0  0  0  0  0  0  0
   -6.5879   -0.0144   -0.7283 C   0  0  0  0  0  0  0  0  0  0  0  0
   -6.0259    0.4334   -2.0009 C   0  0  0  0  0  0  0  0  0  0  0  0
   -4.6827   -0.1341   -2.1675 C   0  0  0  0  0  0  0  0  0  0  0  0
   -4.4521   -1.2857   -1.4741 N   0  0  0  0  0  0  0  0  0  0  0  0
   -3.3228   -1.9340   -1.1226 C   0  0  0  0  0  0  0  0  0  0  0  0
   -2.0629   -1.5392   -1.3794 C   0  0  0  0  0  0  0  0  0  0  0  0
   -1.0126   -2.2702   -0.9724 C   0  0  0  0  0  0  0  0  0  0  0  0
   -1.1963   -3.4094   -0.2888 C   0  0  0  0  0  0  0  0  0  0  0  0
   -0.1618   -4.1303    0.1130 F   0  0  0  0  0  0  0  0  0  0  0  0
   -2.4482   -3.8039   -0.0133 C   0  0  0  0  0  0  0  0  0  0  0  0
   -3.4953   -3.0726   -0.4256 C   0  0  0  0  0  0  0  0  0  0  0  0
   -3.8404    0.4199   -2.8317 O   0  0  0  0  0  0  0  0  0  0  0  0
   -6.9156    0.4849   -3.2192 C   0  0  0  0  0  0  0  0  0  0  0  0
   -6.4315    1.7634   -2.5828 C   0  0  0  0  0  0  0  0  0  0  0  0
   -6.3050    0.5329    0.4815 N   0  0  0  0  0  0  0  0  0  0  0  0
   -5.3855    1.4065    0.9365 C   0  0  0  0  0  0  0  0  0  0  0  0
   -4.5339    2.1351    0.1995 C   0  0  0  0  0  0  0  0  0  0  0  0
   -3.6086    2.9132    0.7801 C   0  0  0  0  0  0  0  0  0  0  0  0
   -3.4806    2.9930    2.1179 C   0  0  0  0  0  0  0  0  0  0  0  0
   -2.4876    3.7210    2.7226 O   0  0  0  0  0  0  0  0  0  0  0  0
   -1.2522    3.6606    2.1249 C   0  0  0  0  0  0  0  0  0  0  0  0
   -0.5546    2.5232    1.8926 C   0  0  0  0  0  0  0  0  0  0  0  0
   -0.9952    1.3016    2.2390 C   0  0  0  0  0  0  0  0  0  0  0  0
   -0.3460    0.1491    1.9803 C   0  0  0  0  0  0  0  0  0  0  0  0
   -0.9479   -1.0216    2.3909 O   0  0  0  0  0  0  0  0  0  0  0  0
   -0.1578   -2.0018    3.0247 C   0  0  0  0  0  0  0  0  0  0  0  0
    0.8604    0.2170    1.3681 C   0  0  0  0  0  0  0  0  0  0  0  0
    1.5323   -0.9455    1.0780 O   0  0  0  0  0  0  0  0  0  0  0  0
    2.6389   -0.9268    0.2156 C   0  0  0  0  0  0  0  0  0  0  0  0
    3.0898   -2.3705   -0.0230 C   0  0  0  0  0  0  0  0  0  0  0  0
    4.3413   -2.4416   -0.9176 C   0  0  0  0  0  0  0  0  0  0  0  0
    4.6609   -3.7874   -1.3871 N   0  0  0  0  0  0  0  0  0  0  0  0
    5.7946   -3.7845   -2.3039 C   0  0  0  0  0  0  0  0  0  0  0  0
    7.1331   -3.5548   -1.6011 C   0  0  0  0  0  0  0  0  0  0  0  0
    7.3296   -4.5071   -0.5871 O   0  0  0  0  0  0  0  0  0  0  0  0
    6.2899   -4.4776    0.3573 C   0  0  0  0  0  0  0  0  0  0  0  0
    4.9491   -4.7409   -0.3254 C   0  0  0  0  0  0  0  0  0  0  0  0
    1.3101    1.4411    1.0255 C   0  0  0  0  0  0  0  0  0  0  0  0
    0.6402    2.5800    1.2743 C   0  0  0  0  0  0  0  0  0  0  0  0
    1.1606    3.6751    0.9037 N   0  0  0  0  0  0  0  0  0  0  0  0
    0.5366    4.7514    1.1199 C   0  0  0  0  0  0  0  0  0  0  0  0
   -0.6600    4.7986    1.7191 C   0  0  0  0  0  0  0  0  0  0  0  0
   -4.3744    2.3043    2.8548 C   0  0  0  0  0  0  0  0  0  0  0  0
   -4.3160    2.3562    4.1775 F   0  0  0  0  0  0  0  0  0  0  0  0
   -5.3029    1.5292    2.2729 C   0  0  0  0  0  0  0  0  0  0  0  0
   -5.2675   -1.7657   -1.1114 H   0  0  0  0  0  0  0  0  0  0  0  0
   -1.8396   -0.6080   -1.9191 H   0  0  0  0  0  0  0  0  0  0  0  0
    0.0116   -1.9297   -1.1975 H   0  0  0  0  0  0  0  0  0  0  0  0
   -2.6154   -4.7345    0.5542 H   0  0  0  0  0  0  0  0  0  0  0  0
   -4.5125   -3.4252   -0.1812 H   0  0  0  0  0  0  0  0  0  0  0  0
   -6.4823    0.2028   -4.1775 H   0  0  0  0  0  0  0  0  0  0  0  0
   -7.9709    0.2423   -3.1057 H   0  0  0  0  0  0  0  0  0  0  0  0
   -7.1554    2.3541   -2.0233 H   0  0  0  0  0  0  0  0  0  0  0  0
   -5.6973    2.3473   -3.1342 H   0  0  0  0  0  0  0  0  0  0  0  0
   -6.8147    0.1215    1.2497 H   0  0  0  0  0  0  0  0  0  0  0  0
   -4.5419    2.1052   -0.8960 H   0  0  0  0  0  0  0  0  0  0  0  0
   -2.9147    3.4722    0.1293 H   0  0  0  0  0  0  0  0  0  0  0  0
   -1.9529    1.1947    2.7707 H   0  0  0  0  0  0  0  0  0  0  0  0
   -0.8410   -2.6719    3.5932 H   0  0  0  0  0  0  0  0  0  0  0  0
    0.3705   -2.6341    2.2805 H   0  0  0  0  0  0  0  0  0  0  0  0
    0.5505   -1.5261    3.7387 H   0  0  0  0  0  0  0  0  0  0  0  0
    2.3431   -0.4636   -0.7545 H   0  0  0  0  0  0  0  0  0  0  0  0
    3.4710   -0.3578    0.6916 H   0  0  0  0  0  0  0  0  0  0  0  0
    3.2943   -2.8341    0.9710 H   0  0  0  0  0  0  0  0  0  0  0  0
    2.2612   -2.9450   -0.5012 H   0  0  0  0  0  0  0  0  0  0  0  0
    4.1406   -1.7965   -1.8075 H   0  0  0  0  0  0  0  0  0  0  0  0
    5.1918   -1.9723   -0.3747 H   0  0  0  0  0  0  0  0  0  0  0  0
    5.8382   -4.7687   -2.8314 H   0  0  0  0  0  0  0  0  0  0  0  0
    5.6503   -3.0267   -3.1097 H   0  0  0  0  0  0  0  0  0  0  0  0
    7.9709   -3.6698   -2.3282 H   0  0  0  0  0  0  0  0  0  0  0  0
    7.2199   -2.5327   -1.1704 H   0  0  0  0  0  0  0  0  0  0  0  0
    6.5019   -5.2760    1.1065 H   0  0  0  0  0  0  0  0  0  0  0  0
    6.3069   -3.5078    0.9023 H   0  0  0  0  0  0  0  0  0  0  0  0
    4.9745   -5.7699   -0.7608 H   0  0  0  0  0  0  0  0  0  0  0  0
    4.1287   -4.7793    0.4252 H   0  0  0  0  0  0  0  0  0  0  0  0
    2.2780    1.5404    0.5079 H   0  0  0  0  0  0  0  0  0  0  0  0
    1.0255    5.6802    0.7808 H   0  0  0  0  0  0  0  0  0  0  0  0
   -1.1586    5.7699    1.8724 H   0  0  0  0  0  0  0  0  0  0  0  0
   -5.9848    0.9539    2.9227 H   0  0  0  0  0  0  0  0  0  0  0  0
  1  2  2  0      
  2  3  1  0      
  2 16  1  0      
  3  4  1  0      
  3 14  1  0      
  3 15  1  0      
  4  5  1  0      
  4 13  2  0      
  5  6  1  0      
  5 47  1  0      
  6  7  1  0      
  6 12  2  0      
  7  8  2  0      
  7 48  1  0      
  8  9  1  0      
  8 49  1  0      
  9 10  1  0      
  9 11  2  0      
 11 12  1  0      
 11 50  1  0      
 12 51  1  0      
 14 15  1  0      
 14 52  1  0      
 14 53  1  0      
 15 54  1  0      
 15 55  1  0      
 16 17  1  0      
 16 56  1  0      
 17 18  1  0      
 17 46  2  0      
 18 19  2  0      
 18 57  1  0      
 19 20  1  0      
 19 58  1  0      
 20 21  1  0      
 20 44  2  0      
 21 22  1  0      
 22 23  1  0      
 43 22  2  0      
 23 24  2  0      
 23 40  1  0      
 24 25  1  0      
 24 59  1  0      
 25 26  1  0      
 25 28  2  0      
 26 27  1  0      
 27 60  1  0      
 27 61  1  0      
 27 62  1  0      
 28 29  1  0      
 28 39  1  0      
 29 30  1  0      
 30 31  1  0      
 30 63  1  0      
 30 64  1  0      
 31 32  1  0      
 31 65  1  0      
 31 66  1  0      
 32 33  1  0      
 32 67  1  0      
 32 68  1  0      
 33 34  1  0      
 33 38  1  0      
 34 35  1  0      
 34 69  1  0      
 34 70  1  0      
 35 36  1  0      
 35 71  1  0      
 35 72  1  0      
 36 37  1  0      
 37 38  1  0      
 37 73  1  0      
 37 74  1  0      
 38 75  1  0      
 38 76  1  0      
 39 40  2  0      
 39 77  1  0      
 40 41  1  0      
 42 41  2  0      
 42 43  1  0      
 42 78  1  0      
 43 79  1  0      
 44 45  1  0      
 44 46  1  0      
 46 80  1  0      
M  END
