
  Chem3D Core 15.010141517113D

 53 56  0  0  0  0  0  0  0  0999 V2000
    4.1812    3.3912    0.4387 O   0  0  0  0  0  0  0  0  0  0  0  0
   -1.1743    2.4078   -1.0980 O   0  0  0  0  0  0  0  0  0  0  0  0
   -4.0028   -2.2886   -2.3689 O   0  0  0  0  0  0  0  0  0  0  0  0
   -4.9672    1.4260   -1.4664 O   0  0  0  0  0  0  0  0  0  0  0  0
    2.2943    1.8736    0.2172 C   0  0  0  0  0  0  0  0  0  0  0  0
    2.2726    0.3641   -0.0957 C   0  0  0  0  0  0  0  0  0  0  0  0
    0.9946   -0.3332    0.3865 C   0  0  0  0  0  0  0  0  0  0  0  0
   -0.2586    0.3432   -0.2328 C   0  0  0  0  0  0  0  0  0  0  0  0
    3.7243    2.2500   -0.2396 C   0  0  0  0  0  0  0  0  0  0  0  0
    1.1250    2.4938   -0.5645 C   0  0  0  0  0  0  0  0  0  0  0  0
    3.6186   -0.1352    0.4395 C   0  0  0  0  0  0  0  0  0  0  0  0
   -0.2316    1.8839   -0.1846 C   0  0  0  0  0  0  0  0  0  0  0  0
   -1.5538   -0.3261    0.3134 C   0  0  0  0  0  0  0  0  0  0  0  0
    4.5829    1.0360    0.1660 C   0  0  0  0  0  0  0  0  0  0  0  0
    1.0220   -1.8380    0.0533 C   0  0  0  0  0  0  0  0  0  0  0  0
    2.1290    2.1939    1.7234 C   0  0  0  0  0  0  0  0  0  0  0  0
   -0.2729   -2.5386    0.4860 C   0  0  0  0  0  0  0  0  0  0  0  0
   -1.4492   -1.7803   -0.0814 C   0  0  0  0  0  0  0  0  0  0  0  0
    3.8770    2.5549   -1.7338 C   0  0  0  0  0  0  0  0  0  0  0  0
   -1.7626   -0.1754    1.8354 C   0  0  0  0  0  0  0  0  0  0  0  0
   -2.7965    0.2403   -0.3308 C   0  0  0  0  0  0  0  0  0  0  0  0
   -2.2805   -2.3329   -0.9761 C   0  0  0  0  0  0  0  0  0  0  0  0
   -3.5872   -0.3903   -1.2170 C   0  0  0  0  0  0  0  0  0  0  0  0
   -3.3205   -1.6847   -1.5646 C   0  0  0  0  0  0  0  0  0  0  0  0
   -4.6620    0.2819   -1.7295 C   0  0  0  0  0  0  0  0  0  0  0  0
    2.3054    0.2256   -1.2053 H   0  0  0  0  0  0  0  0  0  0  0  0
    0.9668   -0.2453    1.4955 H   0  0  0  0  0  0  0  0  0  0  0  0
   -0.2106    0.1050   -1.3279 H   0  0  0  0  0  0  0  0  0  0  0  0
    4.2839    3.2044    1.3741 H   0  0  0  0  0  0  0  0  0  0  0  0
   -2.0051    2.6019   -0.6600 H   0  0  0  0  0  0  0  0  0  0  0  0
    1.2635    2.3263   -1.6577 H   0  0  0  0  0  0  0  0  0  0  0  0
    1.1140    3.5976   -0.4069 H   0  0  0  0  0  0  0  0  0  0  0  0
    3.5417   -0.3396    1.5324 H   0  0  0  0  0  0  0  0  0  0  0  0
    3.9501   -1.0755   -0.0572 H   0  0  0  0  0  0  0  0  0  0  0  0
   -0.5373    2.2444    0.8216 H   0  0  0  0  0  0  0  0  0  0  0  0
    5.3055    0.7688   -0.6387 H   0  0  0  0  0  0  0  0  0  0  0  0
    5.1864    1.2475    1.0793 H   0  0  0  0  0  0  0  0  0  0  0  0
    1.8895   -2.3334    0.5495 H   0  0  0  0  0  0  0  0  0  0  0  0
    1.1557   -1.9691   -1.0471 H   0  0  0  0  0  0  0  0  0  0  0  0
    1.1896    1.8037    2.1662 H   0  0  0  0  0  0  0  0  0  0  0  0
    2.9569    1.7837    2.3416 H   0  0  0  0  0  0  0  0  0  0  0  0
    2.1041    3.2934    1.8957 H   0  0  0  0  0  0  0  0  0  0  0  0
   -0.2577   -3.5976    0.1386 H   0  0  0  0  0  0  0  0  0  0  0  0
   -0.3479   -2.5791    1.5956 H   0  0  0  0  0  0  0  0  0  0  0  0
    3.2956    3.4575   -2.0279 H   0  0  0  0  0  0  0  0  0  0  0  0
    4.9398    2.7726   -1.9870 H   0  0  0  0  0  0  0  0  0  0  0  0
    3.5577    1.7072   -2.3790 H   0  0  0  0  0  0  0  0  0  0  0  0
   -2.6872   -0.7070    2.1587 H   0  0  0  0  0  0  0  0  0  0  0  0
   -0.9354   -0.5845    2.4512 H   0  0  0  0  0  0  0  0  0  0  0  0
   -1.8741    0.8903    2.1355 H   0  0  0  0  0  0  0  0  0  0  0  0
   -3.0440    1.2592    0.0031 H   0  0  0  0  0  0  0  0  0  0  0  0
   -2.1035   -3.3853   -1.2594 H   0  0  0  0  0  0  0  0  0  0  0  0
   -5.3055   -0.2714   -2.4512 H   0  0  0  0  0  0  0  0  0  0  0  0
  9  1  1  0      
  1 29  1  0      
 12  2  1  0      
  2 30  1  0      
  3 24  2  0      
  4 25  2  0      
  6  5  1  0      
  9  5  1  0      
  5 10  1  0      
  5 16  1  0      
  7  6  1  0      
  6 11  1  0      
  6 26  1  0      
  7  8  1  0      
 15  7  1  0      
  7 27  1  0      
 12  8  1  0      
  8 13  1  0      
  8 28  1  0      
 14  9  1  0      
  9 19  1  0      
 10 12  1  0      
 10 31  1  0      
 10 32  1  0      
 11 14  1  0      
 11 33  1  0      
 11 34  1  0      
 12 35  1  0      
 18 13  1  0      
 13 20  1  0      
 13 21  1  0      
 14 36  1  0      
 14 37  1  0      
 17 15  1  0      
 15 38  1  0      
 15 39  1  0      
 16 40  1  0      
 16 41  1  0      
 16 42  1  0      
 18 17  1  0      
 17 43  1  0      
 17 44  1  0      
 22 18  2  0      
 19 45  1  0      
 19 46  1  0      
 19 47  1  0      
 20 48  1  0      
 20 49  1  0      
 20 50  1  0      
 21 23  2  0      
 21 51  1  0      
 24 22  1  0      
 22 52  1  0      
 23 24  1  0      
 23 25  1  0      
 25 53  1  0      
M  END
