
  Chem3D Core 15.004011617173D

  0  0  0     0  0              0 V3000
M  V30 BEGIN CTAB
M  V30 COUNTS 85 87 0 0 0
M  V30 BEGIN ATOM
M  V30 1 P 0.982225 2.756517 -0.912192 0
M  V30 2 O 0.172577 3.598096 -1.834473 0
M  V30 3 C -4.737637 0.260445 1.673943 0
M  V30 4 C -6.067721 0.456803 1.599834 0
M  V30 5 C -4.291668 -0.697991 2.507189 0
M  V30 6 C -6.927249 -0.272774 2.327481 0
M  V30 7 C -5.143880 -1.434634 3.238106 0
M  V30 8 C -6.465514 -1.224784 3.150996 0
M  V30 9 C -3.825142 1.118374 0.817383 0
M  V30 10 C -2.310399 0.987759 1.043543 0
M  V30 11 C -1.517262 1.901390 0.091162 0
M  V30 12 C -0.001155 1.780542 0.309592 0
M  V30 13 C 4.348893 -1.369774 -1.676993 0
M  V30 14 N 3.528675 -0.278320 -2.184328 0
M  V30 15 C 4.617882 -2.259668 -2.900254 0
M  V30 16 C 3.674065 -0.158072 -3.635444 0
M  V30 17 C 4.727661 -1.214384 -4.022381 0
M  V30 18 C 2.391625 -0.379689 -4.432489 0
M  V30 19 O 2.069577 0.216529 -5.432973 0
M  V30 20 O 1.618995 -1.350361 -3.911313 0
M  V30 21 C 6.970927 -4.988224 -1.367246 0
M  V30 22 C 5.792573 -4.009380 -1.465743 0
M  V30 23 C 6.982531 -5.946209 -2.564708 0
M  V30 24 C 5.825498 -3.209063 -2.782488 0
M  V30 25 C 7.047480 -5.161886 -3.881136 0
M  V30 26 C 5.877713 -4.172525 -3.985612 0
M  V30 27 C 2.818330 0.563061 -1.359657 0
M  V30 28 C 1.922311 1.582926 -2.061428 0
M  V30 29 O 2.887968 0.463300 -0.158251 0
M  V30 30 C 3.518794 5.547643 0.173998 0
M  V30 31 C 3.868824 5.938103 -1.273058 0
M  V30 32 C 2.170474 4.825141 0.231034 0
M  V30 33 C 4.661959 4.725727 0.794302 0
M  V30 34 O 1.852834 4.577562 1.584165 0
M  V30 35 C 0.593571 4.809582 2.051233 0
M  V30 36 C 0.553498 4.564685 3.551106 0
M  V30 37 O -0.356247 5.154138 1.385377 0
M  V30 38 C 1.354029 5.611763 4.335712 0
M  V30 39 O 2.297827 3.568328 -0.400808 0
M  V30 40 H -6.467572 1.233150 0.925208 0
M  V30 41 H -3.215179 -0.906152 2.609680 0
M  V30 42 H -8.012488 -0.091818 2.247764 0
M  V30 43 H -4.758339 -2.217506 3.913492 0
M  V30 44 H -7.166686 -1.829519 3.750566 0
M  V30 45 H -4.047727 0.874012 -0.248831 0
M  V30 46 H -4.106838 2.186299 0.978866 0
M  V30 47 H -2.060517 1.253003 2.098300 0
M  V30 48 H -1.990795 -0.065714 0.860160 0
M  V30 49 H -1.767376 1.620814 -0.960769 0
M  V30 50 H -1.833706 2.961137 0.242035 0
M  V30 51 H 0.269751 2.118104 1.336503 0
M  V30 52 H 0.293161 0.709696 0.220089 0
M  V30 53 H 3.814872 -1.940654 -0.883361 0
M  V30 54 H 5.295905 -0.951220 -1.262618 0
M  V30 55 H 3.699961 -2.876316 -3.071973 0
M  V30 56 H 4.063444 0.854589 -3.902358 0
M  V30 57 H 4.564461 -1.642170 -5.036634 0
M  V30 58 H 5.744153 -0.753939 -3.999165 0
M  V30 59 H 0.828387 -1.442567 -4.469102 0
M  V30 60 H 6.898765 -5.571366 -0.417713 0
M  V30 61 H 7.929683 -4.418084 -1.331609 0
M  V30 62 H 4.832244 -4.572344 -1.395840 0
M  V30 63 H 5.836522 -3.317780 -0.591379 0
M  V30 64 H 7.853075 -6.640921 -2.490176 0
M  V30 65 H 6.057015 -6.570065 -2.548638 0
M  V30 66 H 6.760468 -2.595273 -2.781412 0
M  V30 67 H 7.023765 -5.872209 -4.742936 0
M  V30 68 H 8.012488 -4.604153 -3.940781 0
M  V30 69 H 4.922783 -4.747282 -4.048158 0
M  V30 70 H 5.974719 -3.594384 -4.935423 0
M  V30 71 H 2.525812 2.206277 -2.760532 0
M  V30 72 H 1.138039 1.031016 -2.626683 0
M  V30 73 H 3.421118 6.498114 0.760611 0
M  V30 74 H 4.810524 6.530779 -1.314377 0
M  V30 75 H 3.064962 6.560117 -1.728281 0
M  V30 76 H 4.009097 5.040859 -1.917190 0
M  V30 77 H 1.406392 5.451627 -0.278626 0
M  V30 78 H 4.450785 4.461489 1.855046 0
M  V30 79 H 5.616618 5.299263 0.780975 0
M  V30 80 H 4.832975 3.778176 0.234538 0
M  V30 81 H -0.509726 4.583808 3.888641 0
M  V30 82 H 0.944789 3.541404 3.761001 0
M  V30 83 H 1.259277 5.444148 5.432973 0
M  V30 84 H 2.438637 5.570515 4.085305 0
M  V30 85 H 0.989274 6.640921 4.115576 0
M  V30 END ATOM
M  V30 BEGIN BOND
M  V30 1 2 1 2
M  V30 2 1 1 12
M  V30 3 1 1 28
M  V30 4 1 1 39
M  V30 5 1 3 4
M  V30 6 2 3 5
M  V30 7 1 3 9
M  V30 8 2 4 6
M  V30 9 1 4 40
M  V30 10 1 7 5
M  V30 11 1 5 41
M  V30 12 1 6 8
M  V30 13 1 6 42
M  V30 14 2 8 7
M  V30 15 1 7 43
M  V30 16 1 8 44
M  V30 17 1 9 10
M  V30 18 1 9 45
M  V30 19 1 9 46
M  V30 20 1 10 11
M  V30 21 1 10 47
M  V30 22 1 10 48
M  V30 23 1 11 12
M  V30 24 1 11 49
M  V30 25 1 11 50
M  V30 26 1 12 51
M  V30 27 1 12 52
M  V30 28 1 14 13
M  V30 29 1 13 15
M  V30 30 1 13 53
M  V30 31 1 13 54
M  V30 32 1 14 16
M  V30 33 1 14 27
M  V30 34 1 15 17
M  V30 35 1 15 24
M  V30 36 1 15 55
M  V30 37 1 17 16
M  V30 38 1 16 18
M  V30 39 1 16 56
M  V30 40 1 17 57
M  V30 41 1 17 58
M  V30 42 2 18 19
M  V30 43 1 18 20
M  V30 44 1 20 59
M  V30 45 1 21 22
M  V30 46 1 21 23
M  V30 47 1 21 60
M  V30 48 1 21 61
M  V30 49 1 22 24
M  V30 50 1 22 62
M  V30 51 1 22 63
M  V30 52 1 25 23
M  V30 53 1 23 64
M  V30 54 1 23 65
M  V30 55 1 24 26
M  V30 56 1 24 66
M  V30 57 1 26 25
M  V30 58 1 25 67
M  V30 59 1 25 68
M  V30 60 1 26 69
M  V30 61 1 26 70
M  V30 62 1 27 28
M  V30 63 2 27 29
M  V30 64 1 28 71
M  V30 65 1 28 72
M  V30 66 1 30 31
M  V30 67 1 30 32
M  V30 68 1 30 33
M  V30 69 1 30 73
M  V30 70 1 31 74
M  V30 71 1 31 75
M  V30 72 1 31 76
M  V30 73 1 32 34
M  V30 74 1 32 39
M  V30 75 1 32 77
M  V30 76 1 33 78
M  V30 77 1 33 79
M  V30 78 1 33 80
M  V30 79 1 34 35
M  V30 80 1 35 36
M  V30 81 2 35 37
M  V30 82 1 36 38
M  V30 83 1 36 81
M  V30 84 1 36 82
M  V30 85 1 38 83
M  V30 86 1 38 84
M  V30 87 1 38 85
M  V30 END BOND
M  V30 END CTAB
M  END
