
  Chem3D Core 14.008141513373D

 88 91  0  0  0  0  0  0  0  0999 V2000
    2.8262   -6.1336   -4.9447 S   0  0  0  0  0  0  0  0  0  0  0  0
   -2.3053   -6.7754   -6.7377 F   0  0  0  0  0  0  0  0  0  0  0  0
   -2.6430   -5.5451   -5.0508 F   0  0  0  0  0  0  0  0  0  0  0  0
   -3.4835   -8.8569   -5.4375 F   0  0  0  0  0  0  0  0  0  0  0  0
   -4.7296   -7.1674   -5.6098 F   0  0  0  0  0  0  0  0  0  0  0  0
   -3.8153   -7.6364   -3.7718 F   0  0  0  0  0  0  0  0  0  0  0  0
    4.5505    8.1045    4.8053 O   0  0  0  0  0  0  0  0  0  0  0  0
   -4.8903    2.6595    4.6602 O   0  0  0  0  0  0  0  0  0  0  0  0
    3.3756   -6.4410   -6.2567 O   0  0  0  0  0  0  0  0  0  0  0  0
    1.2409    4.4531    4.5486 C   0  0  0  0  0  0  0  0  0  0  0  0
    2.5511    5.1481    4.1648 C   0  0  0  0  0  0  0  0  0  0  0  0
    0.0642    5.2109    3.8961 C   0  0  0  0  0  0  0  0  0  0  0  0
    2.6204    6.5993    4.6872 C   0  0  0  0  0  0  0  0  0  0  0  0
    1.1771    2.9471    4.2347 C   0  0  0  0  0  0  0  0  0  0  0  0
   -1.2648    4.5006    4.1238 C   0  0  0  0  0  0  0  0  0  0  0  0
    0.0970    6.6991    4.3172 C   0  0  0  0  0  0  0  0  0  0  0  0
    4.0226    6.9639    4.1772 C   0  0  0  0  0  0  0  0  0  0  0  0
    3.8911    4.5402    4.5931 C   0  0  0  0  0  0  0  0  0  0  0  0
    1.4580    7.3755    4.0455 C   0  0  0  0  0  0  0  0  0  0  0  0
   -1.3303    3.2347    4.5899 C   0  0  0  0  0  0  0  0  0  0  0  0
   -0.0941    2.4281    4.9269 C   0  0  0  0  0  0  0  0  0  0  0  0
    4.8792    5.7189    4.4511 C   0  0  0  0  0  0  0  0  0  0  0  0
    2.5677    6.7468    6.2252 C   0  0  0  0  0  0  0  0  0  0  0  0
    1.2262    2.6034    2.7319 C   0  0  0  0  0  0  0  0  0  0  0  0
   -2.4234    5.1136    3.8172 C   0  0  0  0  0  0  0  0  0  0  0  0
   -2.5311    2.6519    4.7632 C   0  0  0  0  0  0  0  0  0  0  0  0
   -3.6109    4.5175    3.9944 C   0  0  0  0  0  0  0  0  0  0  0  0
   -3.6884    3.2701    4.4805 C   0  0  0  0  0  0  0  0  0  0  0  0
    1.4342    1.1073    2.4365 C   0  0  0  0  0  0  0  0  0  0  0  0
    1.6183    0.8426    0.9324 C   0  0  0  0  0  0  0  0  0  0  0  0
    1.7721   -0.6560    0.6253 C   0  0  0  0  0  0  0  0  0  0  0  0
   -2.4320   -6.7959   -5.4224 C   0  0  0  0  0  0  0  0  0  0  0  0
   -3.6307   -7.6147   -5.0640 C   0  0  0  0  0  0  0  0  0  0  0  0
    1.9880   -0.9152   -0.8747 C   0  0  0  0  0  0  0  0  0  0  0  0
   -1.1661   -7.3007   -4.7966 C   0  0  0  0  0  0  0  0  0  0  0  0
    2.0980   -2.4158   -1.1901 C   0  0  0  0  0  0  0  0  0  0  0  0
    0.0766   -6.4677   -5.1645 C   0  0  0  0  0  0  0  0  0  0  0  0
    1.3430   -6.9902   -4.4673 C   0  0  0  0  0  0  0  0  0  0  0  0
    2.3452   -2.6713   -2.6859 C   0  0  0  0  0  0  0  0  0  0  0  0
    2.6770   -4.4182   -4.5036 C   0  0  0  0  0  0  0  0  0  0  0  0
    2.4128   -4.1730   -3.0105 C   0  0  0  0  0  0  0  0  0  0  0  0
    1.1394    4.5367    5.6572 H   0  0  0  0  0  0  0  0  0  0  0  0
    2.5814    5.1871    3.0463 H   0  0  0  0  0  0  0  0  0  0  0  0
    0.2121    5.1993    2.7872 H   0  0  0  0  0  0  0  0  0  0  0  0
    3.9821    8.8569    4.6238 H   0  0  0  0  0  0  0  0  0  0  0  0
   -5.5966    3.2636    4.3791 H   0  0  0  0  0  0  0  0  0  0  0  0
    2.0573    2.4524    4.7167 H   0  0  0  0  0  0  0  0  0  0  0  0
   -0.6693    7.2922    3.7657 H   0  0  0  0  0  0  0  0  0  0  0  0
   -0.1693    6.7778    5.3960 H   0  0  0  0  0  0  0  0  0  0  0  0
    3.9962    7.1794    3.0837 H   0  0  0  0  0  0  0  0  0  0  0  0
    3.8310    4.1913    5.6496 H   0  0  0  0  0  0  0  0  0  0  0  0
    4.1804    3.6687    3.9624 H   0  0  0  0  0  0  0  0  0  0  0  0
    1.6072    7.4304    2.9411 H   0  0  0  0  0  0  0  0  0  0  0  0
    1.4550    8.4273    4.4152 H   0  0  0  0  0  0  0  0  0  0  0  0
   -0.2448    1.3526    4.6841 H   0  0  0  0  0  0  0  0  0  0  0  0
    0.0326    2.4741    6.0354 H   0  0  0  0  0  0  0  0  0  0  0  0
    5.5966    5.5497    3.6145 H   0  0  0  0  0  0  0  0  0  0  0  0
    5.4762    5.8330    5.3856 H   0  0  0  0  0  0  0  0  0  0  0  0
    2.6325    7.8180    6.5212 H   0  0  0  0  0  0  0  0  0  0  0  0
    1.6289    6.3675    6.6785 H   0  0  0  0  0  0  0  0  0  0  0  0
    3.4018    6.2210    6.7377 H   0  0  0  0  0  0  0  0  0  0  0  0
    0.2925    2.9406    2.2261 H   0  0  0  0  0  0  0  0  0  0  0  0
    2.0730    3.1545    2.2610 H   0  0  0  0  0  0  0  0  0  0  0  0
   -2.4271    6.1308    3.3966 H   0  0  0  0  0  0  0  0  0  0  0  0
   -2.5812    1.6208    5.1518 H   0  0  0  0  0  0  0  0  0  0  0  0
   -4.5381    5.0544    3.7323 H   0  0  0  0  0  0  0  0  0  0  0  0
    2.3334    0.7392    2.9852 H   0  0  0  0  0  0  0  0  0  0  0  0
    0.5579    0.5200    2.7961 H   0  0  0  0  0  0  0  0  0  0  0  0
    0.7379    1.2435    0.3759 H   0  0  0  0  0  0  0  0  0  0  0  0
    2.5206    1.3888    0.5678 H   0  0  0  0  0  0  0  0  0  0  0  0
    2.6372   -1.0657    1.1989 H   0  0  0  0  0  0  0  0  0  0  0  0
    0.8581   -1.1978    0.9668 H   0  0  0  0  0  0  0  0  0  0  0  0
    1.1380   -0.4794   -1.4518 H   0  0  0  0  0  0  0  0  0  0  0  0
    2.9185   -0.3969   -1.2081 H   0  0  0  0  0  0  0  0  0  0  0  0
   -1.2752   -7.3011   -3.6858 H   0  0  0  0  0  0  0  0  0  0  0  0
   -0.9901   -8.3577   -5.1083 H   0  0  0  0  0  0  0  0  0  0  0  0
    2.9327   -2.8598   -0.5972 H   0  0  0  0  0  0  0  0  0  0  0  0
    1.1569   -2.9274   -0.8770 H   0  0  0  0  0  0  0  0  0  0  0  0
    0.2234   -6.4913   -6.2707 H   0  0  0  0  0  0  0  0  0  0  0  0
   -0.0962   -5.4051   -4.8715 H   0  0  0  0  0  0  0  0  0  0  0  0
    1.4867   -8.0676   -4.7159 H   0  0  0  0  0  0  0  0  0  0  0  0
    1.2283   -6.9246   -3.3614 H   0  0  0  0  0  0  0  0  0  0  0  0
    1.5258   -2.2034   -3.2819 H   0  0  0  0  0  0  0  0  0  0  0  0
    3.3007   -2.1815   -2.9900 H   0  0  0  0  0  0  0  0  0  0  0  0
    3.6296   -3.9167   -4.7947 H   0  0  0  0  0  0  0  0  0  0  0  0
    1.8656   -3.9627   -5.1164 H   0  0  0  0  0  0  0  0  0  0  0  0
    3.2213   -4.6453   -2.4029 H   0  0  0  0  0  0  0  0  0  0  0  0
    1.4465   -4.6434   -2.7111 H   0  0  0  0  0  0  0  0  0  0  0  0
  1  9  2  0      
  1 38  1  0      
  1 40  1  0      
  2 32  1  0      
  3 32  1  0      
  4 33  1  0      
  5 33  1  0      
  6 33  1  0      
 17  7  1  0      
  7 45  1  0      
  8 28  1  0      
  8 46  1  0      
 10 11  1  0      
 12 10  1  0      
 10 14  1  0      
 10 42  1  0      
 13 11  1  0      
 11 18  1  0      
 11 43  1  0      
 12 15  1  0      
 16 12  1  0      
 12 44  1  0      
 13 17  1  0      
 13 19  1  0      
 13 23  1  0      
 14 21  1  0      
 14 24  1  0      
 14 47  1  0      
 20 15  2  0      
 25 15  1  0      
 19 16  1  0      
 16 48  1  0      
 16 49  1  0      
 22 17  1  0      
 17 50  1  0      
 18 22  1  0      
 18 51  1  0      
 18 52  1  0      
 19 53  1  0      
 19 54  1  0      
 21 20  1  0      
 20 26  1  0      
 21 55  1  0      
 21 56  1  0      
 22 57  1  0      
 22 58  1  0      
 23 59  1  0      
 23 60  1  0      
 23 61  1  0      
 24 29  1  0      
 24 62  1  0      
 24 63  1  0      
 27 25  2  0      
 25 64  1  0      
 26 28  2  0      
 26 65  1  0      
 28 27  1  0      
 27 66  1  0      
 29 30  1  0      
 29 67  1  0      
 29 68  1  0      
 30 31  1  0      
 30 69  1  0      
 30 70  1  0      
 31 34  1  0      
 31 71  1  0      
 31 72  1  0      
 32 33  1  0      
 32 35  1  0      
 34 36  1  0      
 34 73  1  0      
 34 74  1  0      
 35 37  1  0      
 35 75  1  0      
 35 76  1  0      
 36 39  1  0      
 36 77  1  0      
 36 78  1  0      
 37 38  1  0      
 37 79  1  0      
 37 80  1  0      
 38 81  1  0      
 38 82  1  0      
 39 41  1  0      
 39 83  1  0      
 39 84  1  0      
 40 41  1  0      
 40 85  1  0      
 40 86  1  0      
 41 87  1  0      
 41 88  1  0      
M  END
