
  Chem3D Core 15.001271615143D

 53 57  0  0  0  0  0  0  0  0999 V2000
    8.7984    2.0005    0.2588 O   0  0  0  0  0  0  0  0  0  0  0  0
    7.8687    0.9815   -0.2217 S   0  0  0  0  0  0  0  0  0  0  0  0
    8.2846   -0.0089   -1.2112 O   0  0  0  0  0  0  0  0  0  0  0  0
   -3.4848    2.4162   -0.1783 C   0  0  0  0  0  0  0  0  0  0  0  0
   -4.4242    3.2604   -0.2521 N   0  0  0  0  0  0  0  0  0  0  0  0
   -5.4878    2.6117   -0.1209 N   0  0  0  0  0  0  0  0  0  0  0  0
   -5.1629    1.3967    0.0287 C   0  0  0  0  0  0  0  0  0  0  0  0
   -3.9392    1.2881   -0.0088 O   0  0  0  0  0  0  0  0  0  0  0  0
   -6.0066    0.3620    0.2110 C   0  0  0  0  0  0  0  0  0  0  0  0
   -5.5406   -0.8928    0.3664 C   0  0  0  0  0  0  0  0  0  0  0  0
   -6.3741   -1.9297    0.5480 C   0  0  0  0  0  0  0  0  0  0  0  0
   -7.7017   -1.7345    0.5790 C   0  0  0  0  0  0  0  0  0  0  0  0
   -8.1805   -0.4899    0.4263 C   0  0  0  0  0  0  0  0  0  0  0  0
   -7.3412    0.5424    0.2451 C   0  0  0  0  0  0  0  0  0  0  0  0
   -8.5211   -2.7488    0.7573 C   0  0  0  0  0  0  0  0  0  0  0  0
   -9.2415   -3.6417    0.9164 N   0  0  0  0  0  0  0  0  0  0  0  0
    0.2644   -2.1880   -0.6375 C   0  0  0  0  0  0  0  0  0  0  0  0
    0.2577   -0.8520   -0.8017 C   0  0  0  0  0  0  0  0  0  0  0  0
    1.0859   -0.0407   -0.0961 C   0  0  0  0  0  0  0  0  0  0  0  0
    1.8978   -0.6713    0.7830 C   0  0  0  0  0  0  0  0  0  0  0  0
    1.9010   -1.9997    0.9687 C   0  0  0  0  0  0  0  0  0  0  0  0
    1.0694   -2.7708    0.2597 C   0  0  0  0  0  0  0  0  0  0  0  0
    1.1199    1.2426   -0.1460 N   0  0  0  0  0  0  0  0  0  0  0  0
    0.1233    2.0437   -0.2357 C   0  0  0  0  0  0  0  0  0  0  0  0
    0.5003    3.2508   -0.2474 N   0  0  0  0  0  0  0  0  0  0  0  0
    1.7385    3.2409   -0.1038 N   0  0  0  0  0  0  0  0  0  0  0  0
    2.1281    2.0348   -0.0618 C   0  0  0  0  0  0  0  0  0  0  0  0
    3.4694    1.8141   -0.0622 C   0  0  0  0  0  0  0  0  0  0  0  0
    3.9374    0.6544   -0.2834 N   0  0  0  0  0  0  0  0  0  0  0  0
    5.1810    0.4277   -0.3245 C   0  0  0  0  0  0  0  0  0  0  0  0
    6.1229    1.3665   -0.1534 C   0  0  0  0  0  0  0  0  0  0  0  0
    5.6797    2.6125    0.0595 C   0  0  0  0  0  0  0  0  0  0  0  0
    4.3545    2.8242    0.0963 C   0  0  0  0  0  0  0  0  0  0  0  0
   -1.2004    1.7906   -0.1829 C   0  0  0  0  0  0  0  0  0  0  0  0
   -2.1774    2.7133   -0.2663 C   0  0  0  0  0  0  0  0  0  0  0  0
   -0.6959   -0.3177   -2.1591 Cl  0  0  0  0  0  0  0  0  0  0  0  0
    8.1923   -0.1425    1.2110 C   0  0  0  0  0  0  0  0  0  0  0  0
   -4.4580   -1.1059    0.3496 H   0  0  0  0  0  0  0  0  0  0  0  0
   -5.9569   -2.9440    0.6719 H   0  0  0  0  0  0  0  0  0  0  0  0
   -9.2686   -0.3053    0.4486 H   0  0  0  0  0  0  0  0  0  0  0  0
   -7.7847    1.5453    0.1243 H   0  0  0  0  0  0  0  0  0  0  0  0
   -0.3724   -2.8440   -1.2563 H   0  0  0  0  0  0  0  0  0  0  0  0
    2.5435   -0.1036    1.4755 H   0  0  0  0  0  0  0  0  0  0  0  0
    2.5635   -2.4570    1.7231 H   0  0  0  0  0  0  0  0  0  0  0  0
    1.0647   -3.8647    0.3970 H   0  0  0  0  0  0  0  0  0  0  0  0
    5.4648   -0.6202   -0.5214 H   0  0  0  0  0  0  0  0  0  0  0  0
    6.3808    3.4510    0.2029 H   0  0  0  0  0  0  0  0  0  0  0  0
    4.0377    3.8647    0.2773 H   0  0  0  0  0  0  0  0  0  0  0  0
   -1.5312    0.7563   -0.0068 H   0  0  0  0  0  0  0  0  0  0  0  0
   -1.9256    3.7762   -0.4209 H   0  0  0  0  0  0  0  0  0  0  0  0
    9.2686   -0.4255    1.2577 H   0  0  0  0  0  0  0  0  0  0  0  0
    7.9073    0.3675    2.1591 H   0  0  0  0  0  0  0  0  0  0  0  0
    7.5789   -1.0670    1.1151 H   0  0  0  0  0  0  0  0  0  0  0  0
  1  2  2  0      
  2  3  2  0      
  2 31  1  0      
  2 37  1  0      
  4  5  2  0      
  4  8  1  0      
  4 35  1  0      
  5  6  1  0      
  6  7  2  0      
  7  8  1  0      
  7  9  1  0      
  9 10  1  0      
  9 14  2  0      
 10 11  2  0      
 10 38  1  0      
 11 12  1  0      
 11 39  1  0      
 12 13  2  0      
 12 15  1  0      
 13 14  1  0      
 13 40  1  0      
 14 41  1  0      
 15 16  3  0      
 17 18  1  0      
 17 22  2  0      
 17 42  1  0      
 18 19  2  0      
 18 36  1  0      
 19 20  1  0      
 19 23  1  0      
 20 21  2  0      
 20 43  1  0      
 21 22  1  0      
 21 44  1  0      
 22 45  1  0      
 23 24  1  0      
 27 23  1  0      
 24 25  2  0      
 24 34  1  0      
 25 26  1  0      
 27 26  2  0      
 27 28  1  0      
 28 29  2  0      
 33 28  1  0      
 29 30  1  0      
 31 30  2  0      
 30 46  1  0      
 31 32  1  0      
 32 33  2  0      
 32 47  1  0      
 33 48  1  0      
 34 35  2  0      
 34 49  1  0      
 35 50  1  0      
 37 51  1  0      
 37 52  1  0      
 37 53  1  0      
M  END
