
  Chem3D Core 15.003291615293D

 29 29  0  0  0  0  0  0  0  0999 V2000
    1.5585   -2.6233    1.4052 O   0  0  0  0  0  0  0  0  0  0  0  0
    2.9355   -0.8603    1.7759 O   0  0  0  0  0  0  0  0  0  0  0  0
    2.1668    1.7814    0.5965 N   0  0  0  0  0  0  0  0  0  0  0  0
    0.1946    0.2428    0.3814 C   0  0  0  0  0  0  0  0  0  0  0  0
    0.6135   -0.4148    1.7224 C   0  0  0  0  0  0  0  0  0  0  0  0
   -0.8787    1.3151    0.6903 C   0  0  0  0  0  0  0  0  0  0  0  0
   -0.4349   -0.8267   -0.5433 C   0  0  0  0  0  0  0  0  0  0  0  0
    1.4373    0.8669   -0.2971 C   0  0  0  0  0  0  0  0  0  0  0  0
    1.7276   -1.4409    1.6059 C   0  0  0  0  0  0  0  0  0  0  0  0
   -1.5488    1.9068   -0.5587 C   0  0  0  0  0  0  0  0  0  0  0  0
   -1.0959   -0.2432   -1.8012 C   0  0  0  0  0  0  0  0  0  0  0  0
   -2.1566    0.8008   -1.4305 C   0  0  0  0  0  0  0  0  0  0  0  0
    2.8570    0.1028    1.8599 H   0  0  0  0  0  0  0  0  0  0  0  0
    2.9869    2.1790    0.1066 H   0  0  0  0  0  0  0  0  0  0  0  0
    1.5814    2.5987    0.8396 H   0  0  0  0  0  0  0  0  0  0  0  0
   -0.2635   -0.9290    2.1809 H   0  0  0  0  0  0  0  0  0  0  0  0
    0.9123    0.3614    2.4641 H   0  0  0  0  0  0  0  0  0  0  0  0
   -1.6807    0.8545    1.3158 H   0  0  0  0  0  0  0  0  0  0  0  0
   -0.4406    2.1376    1.3021 H   0  0  0  0  0  0  0  0  0  0  0  0
    0.3339   -1.5750   -0.8472 H   0  0  0  0  0  0  0  0  0  0  0  0
   -1.2157   -1.3878    0.0235 H   0  0  0  0  0  0  0  0  0  0  0  0
    2.1394    0.0687   -0.6305 H   0  0  0  0  0  0  0  0  0  0  0  0
    1.1640    1.4343   -1.2128 H   0  0  0  0  0  0  0  0  0  0  0  0
   -2.3490    2.6233   -0.2530 H   0  0  0  0  0  0  0  0  0  0  0  0
   -0.8133    2.4960   -1.1530 H   0  0  0  0  0  0  0  0  0  0  0  0
   -1.5700   -1.0636   -2.3923 H   0  0  0  0  0  0  0  0  0  0  0  0
   -0.3279    0.2180   -2.4641 H   0  0  0  0  0  0  0  0  0  0  0  0
   -2.9869    0.3040   -0.8740 H   0  0  0  0  0  0  0  0  0  0  0  0
   -2.5992    1.2422   -2.3553 H   0  0  0  0  0  0  0  0  0  0  0  0
  1  9  2  0      
  2  9  1  0      
  2 13  1  0      
  3  8  1  0      
  3 14  1  0      
  3 15  1  0      
  4  5  1  0      
  4  6  1  0      
  4  7  1  0      
  4  8  1  0      
  5  9  1  0      
  5 16  1  0      
  5 17  1  0      
  6 10  1  0      
  6 18  1  0      
  6 19  1  0      
 11  7  1  0      
  7 20  1  0      
  7 21  1  0      
  8 22  1  0      
  8 23  1  0      
 10 12  1  0      
 10 24  1  0      
 10 25  1  0      
 12 11  1  0      
 11 26  1  0      
 11 27  1  0      
 12 28  1  0      
 12 29  1  0      
M  END
