
  Chem3D Core 15.003291611203D

 49 52  0  0  0  0  0  0  0  0999 V2000
   -5.3855   -1.8310   -0.6361 O   0  0  0  0  0  0  0  0  0  0  0  0
   -4.8941   -0.7275   -0.8029 C   0  0  0  0  0  0  0  0  0  0  0  0
   -3.5261   -0.5822   -0.7647 C   0  0  0  0  0  0  0  0  0  0  0  0
   -2.7442   -1.6558   -0.5508 C   0  0  0  0  0  0  0  0  0  0  0  0
   -1.4720   -1.6133   -0.4744 N   0  0  0  0  0  0  0  0  0  0  0  0
   -0.9741   -2.5137    0.5576 C   0  0  0  0  0  0  0  0  0  0  0  0
   -0.2847   -1.8951    1.7510 C   0  0  0  0  0  0  0  0  0  0  0  0
   -1.6814   -2.4355    1.8916 C   0  0  0  0  0  0  0  0  0  0  0  0
   -0.8104   -0.5392   -0.7017 C   0  0  0  0  0  0  0  0  0  0  0  0
   -1.5081    0.5896   -0.9212 C   0  0  0  0  0  0  0  0  0  0  0  0
   -0.8173    1.7147   -1.1511 C   0  0  0  0  0  0  0  0  0  0  0  0
    0.5219    1.7410   -1.1410 C   0  0  0  0  0  0  0  0  0  0  0  0
    1.0235    2.9609   -1.2753 F   0  0  0  0  0  0  0  0  0  0  0  0
    1.2556    0.6254   -0.9126 C   0  0  0  0  0  0  0  0  0  0  0  0
    2.5319    0.7108   -0.7839 N   0  0  0  0  0  0  0  0  0  0  0  0
    3.3409   -0.2536    0.0263 C   0  0  0  0  0  0  0  0  0  0  0  0
    4.0091    0.5433    1.1741 C   0  0  0  0  0  0  0  0  0  0  0  0
    4.9507   -0.3426    2.0049 C   0  0  0  0  0  0  0  0  0  0  0  0
    4.7510    1.7128    0.6982 N   0  0  0  0  0  0  0  0  0  0  0  0
    3.9347    2.6250   -0.1008 C   0  0  0  0  0  0  0  0  0  0  0  0
    3.3468    1.8528   -1.2810 C   0  0  0  0  0  0  0  0  0  0  0  0
    0.5498   -0.5335   -0.7611 C   0  0  0  0  0  0  0  0  0  0  0  0
    1.1621   -1.7709   -0.8136 O   0  0  0  0  0  0  0  0  0  0  0  0
    1.7797   -2.0811   -2.0455 C   0  0  0  0  0  0  0  0  0  0  0  0
   -2.8742    0.6056   -0.9354 C   0  0  0  0  0  0  0  0  0  0  0  0
   -3.4993    1.6283   -1.1192 O   0  0  0  0  0  0  0  0  0  0  0  0
   -5.7801    0.2852   -1.0147 O   0  0  0  0  0  0  0  0  0  0  0  0
   -3.1506   -2.6710   -0.4120 H   0  0  0  0  0  0  0  0  0  0  0  0
   -0.6913   -3.4647    0.1047 H   0  0  0  0  0  0  0  0  0  0  0  0
    0.5347   -2.4681    2.1827 H   0  0  0  0  0  0  0  0  0  0  0  0
   -0.1769   -0.8158    1.8374 H   0  0  0  0  0  0  0  0  0  0  0  0
   -2.4718   -1.7045    2.0524 H   0  0  0  0  0  0  0  0  0  0  0  0
   -1.8119   -3.3733    2.4294 H   0  0  0  0  0  0  0  0  0  0  0  0
   -1.3267    2.6772   -1.3261 H   0  0  0  0  0  0  0  0  0  0  0  0
    2.7684   -1.0175    0.5909 H   0  0  0  0  0  0  0  0  0  0  0  0
    4.1110   -0.7509   -0.6060 H   0  0  0  0  0  0  0  0  0  0  0  0
    3.2066    0.9213    1.8583 H   0  0  0  0  0  0  0  0  0  0  0  0
    4.4077   -1.2088    2.4475 H   0  0  0  0  0  0  0  0  0  0  0  0
    5.7801   -0.7418    1.3774 H   0  0  0  0  0  0  0  0  0  0  0  0
    5.4051    0.2310    2.8445 H   0  0  0  0  0  0  0  0  0  0  0  0
    5.1338    2.2355    1.5250 H   0  0  0  0  0  0  0  0  0  0  0  0
    4.5737    3.4647   -0.4626 H   0  0  0  0  0  0  0  0  0  0  0  0
    3.1234    3.0641    0.5242 H   0  0  0  0  0  0  0  0  0  0  0  0
    4.2037    1.4087   -1.8451 H   0  0  0  0  0  0  0  0  0  0  0  0
    2.8946    2.4810   -2.0719 H   0  0  0  0  0  0  0  0  0  0  0  0
    2.2623   -3.0790   -1.9475 H   0  0  0  0  0  0  0  0  0  0  0  0
    1.0059   -2.1302   -2.8445 H   0  0  0  0  0  0  0  0  0  0  0  0
    2.5513   -1.3345   -2.3253 H   0  0  0  0  0  0  0  0  0  0  0  0
   -5.4124    1.1652   -1.1490 H   0  0  0  0  0  0  0  0  0  0  0  0
  1  2  2  0      
  2  3  1  0      
  2 27  1  0      
  3  4  2  0      
 25  3  1  0      
  4  5  1  0      
  4 28  1  0      
  5  6  1  0      
  5  9  1  0      
  6  7  1  0      
  6  8  1  0      
  6 29  1  0      
  7  8  1  0      
  7 30  1  0      
  7 31  1  0      
  8 32  1  0      
  8 33  1  0      
 10  9  1  0      
 22  9  2  0      
 11 10  2  0      
 10 25  1  0      
 12 11  1  0      
 11 34  1  0      
 12 13  1  0      
 14 12  2  0      
 14 15  1  0      
 22 14  1  0      
 15 16  1  0      
 15 21  1  0      
 16 17  1  0      
 16 35  1  0      
 16 36  1  0      
 17 18  1  0      
 17 19  1  0      
 17 37  1  0      
 18 38  1  0      
 18 39  1  0      
 18 40  1  0      
 19 20  1  0      
 19 41  1  0      
 20 21  1  0      
 20 42  1  0      
 20 43  1  0      
 21 44  1  0      
 21 45  1  0      
 22 23  1  0      
 23 24  1  0      
 24 46  1  0      
 24 47  1  0      
 24 48  1  0      
 25 26  2  0      
 27 49  1  0      
M  END
