
  Chem3D Core 15.010151512193D

 54 57  0  0  0  0  0  0  0  0999 V2000
    2.5399   -1.6105    1.0366 C   0  0  0  0  0  0  0  0  0  0  0  0
    1.7926   -2.5682    1.6375 C   0  0  0  0  0  0  0  0  0  0  0  0
    3.8598   -1.5804    1.3251 C   0  0  0  0  0  0  0  0  0  0  0  0
    2.3029   -3.4793    2.4861 C   0  0  0  0  0  0  0  0  0  0  0  0
    4.3722   -2.4818    2.1679 C   0  0  0  0  0  0  0  0  0  0  0  0
    3.6109   -3.4152    2.7401 C   0  0  0  0  0  0  0  0  0  0  0  0
    5.5992   -2.7115    2.6519 C   0  0  0  0  0  0  0  0  0  0  0  0
    5.5668   -3.7056    3.4386 N   0  0  0  0  0  0  0  0  0  0  0  0
    4.3931   -4.0948    3.4688 N   0  0  0  0  0  0  0  0  0  0  0  0
    2.0043   -0.6986    0.1846 C   0  0  0  0  0  0  0  0  0  0  0  0
    2.6962   -0.2785   -0.9161 C   0  0  0  0  0  0  0  0  0  0  0  0
    0.7271   -0.2728    0.3885 C   0  0  0  0  0  0  0  0  0  0  0  0
   -0.0743    0.1271   -0.6215 C   0  0  0  0  0  0  0  0  0  0  0  0
    0.1770   -0.2080    1.6193 C   0  0  0  0  0  0  0  0  0  0  0  0
   -1.3300    0.5592   -0.4234 C   0  0  0  0  0  0  0  0  0  0  0  0
   -1.0766    0.2248    1.8244 C   0  0  0  0  0  0  0  0  0  0  0  0
   -1.8619    0.6195    0.8083 C   0  0  0  0  0  0  0  0  0  0  0  0
   -3.2695    1.1016    1.1010 C   0  0  0  0  0  0  0  0  0  0  0  0
   -4.1084    1.5763   -0.0949 C   0  0  0  0  0  0  0  0  0  0  0  0
   -5.4961    2.0171    0.3356 C   0  0  0  0  0  0  0  0  0  0  0  0
   -6.5146    1.3739    0.2534 O   0  0  0  0  0  0  0  0  0  0  0  0
   -5.4852    3.2649    0.8445 O   0  0  0  0  0  0  0  0  0  0  0  0
    2.5290    0.9839   -1.4050 C   0  0  0  0  0  0  0  0  0  0  0  0
    2.6869    1.4240   -2.6786 C   0  0  0  0  0  0  0  0  0  0  0  0
    2.2126    1.9482   -0.5066 C   0  0  0  0  0  0  0  0  0  0  0  0
    2.5112    2.7196   -3.0039 C   0  0  0  0  0  0  0  0  0  0  0  0
    2.0426    3.2406   -0.8210 C   0  0  0  0  0  0  0  0  0  0  0  0
    2.1916    3.6418   -2.0874 C   0  0  0  0  0  0  0  0  0  0  0  0
    3.0158    0.4269   -4.0598 Cl  0  0  0  0  0  0  0  0  0  0  0  0
    3.6167   -1.2926   -1.6039 C   0  0  0  0  0  0  0  0  0  0  0  0
    5.0674   -0.8296   -1.8251 C   0  0  0  0  0  0  0  0  0  0  0  0
    2.0276    4.9115   -2.4220 F   0  0  0  0  0  0  0  0  0  0  0  0
    0.7169   -2.6729    1.4134 H   0  0  0  0  0  0  0  0  0  0  0  0
    4.5279   -0.8006    0.9338 H   0  0  0  0  0  0  0  0  0  0  0  0
    1.6759   -4.2580    2.9485 H   0  0  0  0  0  0  0  0  0  0  0  0
    6.5146   -2.1508    2.4247 H   0  0  0  0  0  0  0  0  0  0  0  0
    4.1192   -4.9115    4.0598 H   0  0  0  0  0  0  0  0  0  0  0  0
    0.2568    0.0754   -1.6723 H   0  0  0  0  0  0  0  0  0  0  0  0
    0.7574   -0.4606    2.5232 H   0  0  0  0  0  0  0  0  0  0  0  0
   -1.9200    0.8542   -1.3051 H   0  0  0  0  0  0  0  0  0  0  0  0
   -1.4653    0.2730    2.8560 H   0  0  0  0  0  0  0  0  0  0  0  0
   -3.8163    0.2693    1.6063 H   0  0  0  0  0  0  0  0  0  0  0  0
   -3.1921    1.9415    1.8328 H   0  0  0  0  0  0  0  0  0  0  0  0
   -3.6095    2.4242   -0.6201 H   0  0  0  0  0  0  0  0  0  0  0  0
   -4.2333    0.7447   -0.8281 H   0  0  0  0  0  0  0  0  0  0  0  0
   -6.3926    3.4976    1.1010 H   0  0  0  0  0  0  0  0  0  0  0  0
    2.1275    1.7357    0.5732 H   0  0  0  0  0  0  0  0  0  0  0  0
    2.6155    3.0668   -4.0468 H   0  0  0  0  0  0  0  0  0  0  0  0
    1.7989    3.9798   -0.0395 H   0  0  0  0  0  0  0  0  0  0  0  0
    3.6595   -2.2655   -1.0645 H   0  0  0  0  0  0  0  0  0  0  0  0
    3.1447   -1.6231   -2.5537 H   0  0  0  0  0  0  0  0  0  0  0  0
    5.6278   -1.5778   -2.4321 H   0  0  0  0  0  0  0  0  0  0  0  0
    5.1458    0.1455   -2.3506 H   0  0  0  0  0  0  0  0  0  0  0  0
    5.6278   -0.7083   -0.8737 H   0  0  0  0  0  0  0  0  0  0  0  0
  2  1  1  0      
  1  3  2  0      
  1 10  1  0      
  4  2  2  0      
  2 33  1  0      
  3  5  1  0      
  3 34  1  0      
  6  4  1  0      
  4 35  1  0      
  6  5  2  0      
  7  5  1  0      
  9  6  1  0      
  7  8  2  0      
  7 36  1  0      
  8  9  1  0      
  9 37  1  0      
 10 11  2  0      
 10 12  1  0      
 11 23  1  0      
 11 30  1  0      
 12 13  1  0      
 12 14  2  0      
 13 15  2  0      
 13 38  1  0      
 16 14  1  0      
 14 39  1  0      
 15 17  1  0      
 15 40  1  0      
 17 16  2  0      
 16 41  1  0      
 17 18  1  0      
 18 19  1  0      
 18 42  1  0      
 18 43  1  0      
 19 20  1  0      
 19 44  1  0      
 19 45  1  0      
 20 21  2  0      
 20 22  1  0      
 22 46  1  0      
 23 24  1  0      
 23 25  2  0      
 24 26  2  0      
 24 29  1  0      
 27 25  1  0      
 25 47  1  0      
 26 28  1  0      
 26 48  1  0      
 28 27  2  0      
 27 49  1  0      
 28 32  1  0      
 30 31  1  0      
 30 50  1  0      
 30 51  1  0      
 31 52  1  0      
 31 53  1  0      
 31 54  1  0      
M  END
