
  Chem3D Core 14.008171511023D

 62 66  0  0  0  0  0  0  0  0999 V2000
    1.6074    3.0173    0.5128 C   0  0  0  0  0  0  0  0  0  0  0  0
    1.3698    1.6972    0.5124 C   0  0  0  0  0  0  0  0  0  0  0  0
    0.1153    1.2250    0.5073 C   0  0  0  0  0  0  0  0  0  0  0  0
   -0.9841    2.0118    0.5064 C   0  0  0  0  0  0  0  0  0  0  0  0
   -0.7654    3.3499    0.5103 C   0  0  0  0  0  0  0  0  0  0  0  0
    0.5109    3.7938    0.5045 C   0  0  0  0  0  0  0  0  0  0  0  0
   -1.7194    4.3344    0.4675 O   0  0  0  0  0  0  0  0  0  0  0  0
   -2.8881    4.0941   -0.2546 C   0  0  0  0  0  0  0  0  0  0  0  0
   -3.8150    3.2144    0.5611 C   0  0  0  0  0  0  0  0  0  0  0  0
   -3.3831    1.8158    0.5525 N   0  0  0  0  0  0  0  0  0  0  0  0
   -2.1878    1.3917    0.5244 C   0  0  0  0  0  0  0  0  0  0  0  0
   -2.3082    0.1242    0.5238 N   0  0  0  0  0  0  0  0  0  0  0  0
   -3.5241   -0.2417    0.5521 C   0  0  0  0  0  0  0  0  0  0  0  0
   -4.2439    0.8884    0.5712 C   0  0  0  0  0  0  0  0  0  0  0  0
   -3.8851   -1.5390    0.5564 C   0  0  0  0  0  0  0  0  0  0  0  0
   -5.0026   -2.1544    0.5869 N   0  0  0  0  0  0  0  0  0  0  0  0
   -4.8598   -3.3805    0.5649 N   0  0  0  0  0  0  0  0  0  0  0  0
   -3.6095   -3.5431    0.5259 C   0  0  0  0  0  0  0  0  0  0  0  0
   -2.9923   -2.4422    0.5201 N   0  0  0  0  0  0  0  0  0  0  0  0
   -2.9335   -4.8762    0.4880 C   0  0  0  0  0  0  0  0  0  0  0  0
   -6.3193   -1.4803    0.6415 C   0  0  0  0  0  0  0  0  0  0  0  0
   -6.7439   -1.0206   -0.7625 C   0  0  0  0  0  0  0  0  0  0  0  0
   -7.4062   -2.3989    1.2325 C   0  0  0  0  0  0  0  0  0  0  0  0
    2.8576    3.5190    0.5146 C   0  0  0  0  0  0  0  0  0  0  0  0
    3.2627    4.8019    0.5131 C   0  0  0  0  0  0  0  0  0  0  0  0
    4.5243    4.8946    0.5133 N   0  0  0  0  0  0  0  0  0  0  0  0
    4.9460    3.7348    0.5121 N   0  0  0  0  0  0  0  0  0  0  0  0
    4.0267    2.8580    0.5154 C   0  0  0  0  0  0  0  0  0  0  0  0
    6.3669    3.2969    0.4841 C   0  0  0  0  0  0  0  0  0  0  0  0
    6.5892    2.4123   -0.7466 C   0  0  0  0  0  0  0  0  0  0  0  0
    7.3624    1.4920   -0.8122 O   0  0  0  0  0  0  0  0  0  0  0  0
    5.8284    2.7495   -1.8216 N   0  0  0  0  0  0  0  0  0  0  0  0
    7.3131    4.5050    0.3168 C   0  0  0  0  0  0  0  0  0  0  0  0
    6.7482    2.5533    1.7787 C   0  0  0  0  0  0  0  0  0  0  0  0
    2.1911    0.9622    0.5164 H   0  0  0  0  0  0  0  0  0  0  0  0
    0.0499    0.1233    0.5102 H   0  0  0  0  0  0  0  0  0  0  0  0
    0.6346    4.8895    0.4904 H   0  0  0  0  0  0  0  0  0  0  0  0
   -3.3702    5.0891   -0.4116 H   0  0  0  0  0  0  0  0  0  0  0  0
   -2.6497    3.6741   -1.2576 H   0  0  0  0  0  0  0  0  0  0  0  0
   -3.8900    3.5757    1.6138 H   0  0  0  0  0  0  0  0  0  0  0  0
   -4.8361    3.3070    0.1172 H   0  0  0  0  0  0  0  0  0  0  0  0
   -5.3181    1.0828    0.5947 H   0  0  0  0  0  0  0  0  0  0  0  0
   -3.6735   -5.7081    0.4830 H   0  0  0  0  0  0  0  0  0  0  0  0
   -2.3068   -4.9657   -0.4282 H   0  0  0  0  0  0  0  0  0  0  0  0
   -2.2779   -5.0016    1.3793 H   0  0  0  0  0  0  0  0  0  0  0  0
   -6.2501   -0.6242    1.3516 H   0  0  0  0  0  0  0  0  0  0  0  0
   -7.7053   -0.4594   -0.7276 H   0  0  0  0  0  0  0  0  0  0  0  0
   -5.9863   -0.3577   -1.2359 H   0  0  0  0  0  0  0  0  0  0  0  0
   -6.8803   -1.8942   -1.4397 H   0  0  0  0  0  0  0  0  0  0  0  0
   -8.3781   -1.8621    1.3268 H   0  0  0  0  0  0  0  0  0  0  0  0
   -7.1228   -2.7554    2.2497 H   0  0  0  0  0  0  0  0  0  0  0  0
   -7.5829   -3.2933    0.5930 H   0  0  0  0  0  0  0  0  0  0  0  0
    2.6438    5.7081    0.5110 H   0  0  0  0  0  0  0  0  0  0  0  0
    4.2320    1.7826    0.5101 H   0  0  0  0  0  0  0  0  0  0  0  0
    5.9406    2.2127   -2.6695 H   0  0  0  0  0  0  0  0  0  0  0  0
    5.1439    3.4907   -1.7477 H   0  0  0  0  0  0  0  0  0  0  0  0
    8.3781    4.1841    0.2560 H   0  0  0  0  0  0  0  0  0  0  0  0
    7.2273    5.2058    1.1782 H   0  0  0  0  0  0  0  0  0  0  0  0
    7.0870    5.0800   -0.6101 H   0  0  0  0  0  0  0  0  0  0  0  0
    6.5430    3.1898    2.6695 H   0  0  0  0  0  0  0  0  0  0  0  0
    6.1735    1.6086    1.9044 H   0  0  0  0  0  0  0  0  0  0  0  0
    7.8291    2.2873    1.8028 H   0  0  0  0  0  0  0  0  0  0  0  0
  1  2  2  0      
  1  6  1  0      
  1 24  1  0      
  2  3  1  0      
  2 35  1  0      
  3  4  2  0      
  3 36  1  0      
  4  5  1  0      
  4 11  1  0      
  5  6  2  0      
  5  7  1  0      
  6 37  1  0      
  7  8  1  0      
  8  9  1  0      
  8 38  1  0      
  8 39  1  0      
  9 10  1  0      
  9 40  1  0      
  9 41  1  0      
 10 11  1  0      
 10 14  1  0      
 11 12  2  0      
 12 13  1  0      
 13 14  2  0      
 13 15  1  0      
 14 42  1  0      
 15 16  1  0      
 15 19  2  0      
 16 17  1  0      
 16 21  1  0      
 17 18  2  0      
 18 19  1  0      
 18 20  1  0      
 20 43  1  0      
 20 44  1  0      
 20 45  1  0      
 21 22  1  0      
 21 23  1  0      
 21 46  1  0      
 22 47  1  0      
 22 48  1  0      
 22 49  1  0      
 23 50  1  0      
 23 51  1  0      
 23 52  1  0      
 25 24  1  0      
 24 28  2  0      
 25 26  2  0      
 25 53  1  0      
 27 26  1  0      
 28 27  1  0      
 27 29  1  0      
 28 54  1  0      
 29 30  1  0      
 29 33  1  0      
 29 34  1  0      
 30 31  2  0      
 30 32  1  0      
 32 55  1  0      
 32 56  1  0      
 33 57  1  0      
 33 58  1  0      
 33 59  1  0      
 34 60  1  0      
 34 61  1  0      
 34 62  1  0      
M  END
