
  Chem3D Core 15.008141512273D

 55 58  0  0  0  0  0  0  0  0999 V2000
    4.9137    1.4601    0.8365 C   0  0  0  0  0  0  0  0  0  0  0  0
    4.1901    2.6206    0.5025 O   0  0  0  0  0  0  0  0  0  0  0  0
    2.8458    2.7269    0.7919 C   0  0  0  0  0  0  0  0  0  0  0  0
    2.3663    3.9766    0.9415 C   0  0  0  0  0  0  0  0  0  0  0  0
    1.0899    4.2584    1.2439 C   0  0  0  0  0  0  0  0  0  0  0  0
    0.7541    5.4696    1.3902 N   0  0  0  0  0  0  0  0  0  0  0  0
   -0.4470    5.6831    1.7107 C   0  0  0  0  0  0  0  0  0  0  0  0
   -1.3551    4.8176    1.8518 N   0  0  0  0  0  0  0  0  0  0  0  0
   -1.1004    3.5879    1.6418 C   0  0  0  0  0  0  0  0  0  0  0  0
   -2.1515    2.8661    1.7222 N   0  0  0  0  0  0  0  0  0  0  0  0
   -2.6145    1.7141    1.4308 C   0  0  0  0  0  0  0  0  0  0  0  0
   -2.0708    0.7934    0.6144 C   0  0  0  0  0  0  0  0  0  0  0  0
   -2.6643   -0.3874    0.3811 C   0  0  0  0  0  0  0  0  0  0  0  0
   -3.8515   -0.6766    0.9327 C   0  0  0  0  0  0  0  0  0  0  0  0
   -4.4248   -1.8439    0.6809 F   0  0  0  0  0  0  0  0  0  0  0  0
   -4.4448    0.2528    1.7025 C   0  0  0  0  0  0  0  0  0  0  0  0
   -5.9959   -0.0509    2.4089 Cl  0  0  0  0  0  0  0  0  0  0  0  0
   -3.8354    1.4291    1.9303 C   0  0  0  0  0  0  0  0  0  0  0  0
    0.1899    3.2655    1.3782 C   0  0  0  0  0  0  0  0  0  0  0  0
    0.7070    2.0260    1.3258 C   0  0  0  0  0  0  0  0  0  0  0  0
    1.9884    1.7066    1.0428 C   0  0  0  0  0  0  0  0  0  0  0  0
    2.4319    0.4061    0.9755 O   0  0  0  0  0  0  0  0  0  0  0  0
    1.5195   -0.6606    0.9996 C   0  0  0  0  0  0  0  0  0  0  0  0
    2.2802   -1.9661    0.7523 C   0  0  0  0  0  0  0  0  0  0  0  0
    1.3285   -3.1778    0.7365 C   0  0  0  0  0  0  0  0  0  0  0  0
    2.0090   -4.4700    0.7273 N   0  0  0  0  0  0  0  0  0  0  0  0
    1.0673   -5.5773    0.8403 C   0  0  0  0  0  0  0  0  0  0  0  0
    0.2704   -5.8186   -0.4421 C   0  0  0  0  0  0  0  0  0  0  0  0
    1.1356   -6.0283   -1.5289 O   0  0  0  0  0  0  0  0  0  0  0  0
    2.0059   -4.9409   -1.7133 C   0  0  0  0  0  0  0  0  0  0  0  0
    2.8324   -4.7045   -0.4504 C   0  0  0  0  0  0  0  0  0  0  0  0
    5.9959    1.6937    0.7194 H   0  0  0  0  0  0  0  0  0  0  0  0
    4.7359    1.1820    1.8990 H   0  0  0  0  0  0  0  0  0  0  0  0
    4.6832    0.6333    0.1300 H   0  0  0  0  0  0  0  0  0  0  0  0
    3.0746    4.8153    0.8136 H   0  0  0  0  0  0  0  0  0  0  0  0
   -0.7366    6.7361    1.8688 H   0  0  0  0  0  0  0  0  0  0  0  0
   -2.9213    3.4371    2.1624 H   0  0  0  0  0  0  0  0  0  0  0  0
   -1.1554    0.9935    0.0406 H   0  0  0  0  0  0  0  0  0  0  0  0
   -2.1909   -1.1152   -0.2999 H   0  0  0  0  0  0  0  0  0  0  0  0
   -4.3568    2.1657    2.5676 H   0  0  0  0  0  0  0  0  0  0  0  0
    0.0476    1.2067    1.6231 H   0  0  0  0  0  0  0  0  0  0  0  0
    1.0287   -0.7092    1.9992 H   0  0  0  0  0  0  0  0  0  0  0  0
    0.7672   -0.5226    0.1886 H   0  0  0  0  0  0  0  0  0  0  0  0
    2.8129   -1.8734   -0.2233 H   0  0  0  0  0  0  0  0  0  0  0  0
    3.0503   -2.1052    1.5484 H   0  0  0  0  0  0  0  0  0  0  0  0
    0.7069   -3.1123    1.6626 H   0  0  0  0  0  0  0  0  0  0  0  0
    0.6261   -3.0667   -0.1196 H   0  0  0  0  0  0  0  0  0  0  0  0
    1.6307   -6.5106    1.0861 H   0  0  0  0  0  0  0  0  0  0  0  0
    0.3725   -5.4208    1.6989 H   0  0  0  0  0  0  0  0  0  0  0  0
   -0.3548   -6.7361   -0.3365 H   0  0  0  0  0  0  0  0  0  0  0  0
   -0.4240   -4.9818   -0.6775 H   0  0  0  0  0  0  0  0  0  0  0  0
    2.6759   -5.1959   -2.5676 H   0  0  0  0  0  0  0  0  0  0  0  0
    1.4229   -4.0426   -2.0153 H   0  0  0  0  0  0  0  0  0  0  0  0
    3.4666   -5.6076   -0.2737 H   0  0  0  0  0  0  0  0  0  0  0  0
    3.5627   -3.8806   -0.6107 H   0  0  0  0  0  0  0  0  0  0  0  0
  1  2  1  0      
  1 32  1  0      
  1 33  1  0      
  1 34  1  0      
  2  3  1  0      
  3  4  2  0      
  3 21  1  0      
  4  5  1  0      
  4 35  1  0      
  5  6  2  0      
  5 19  1  0      
  6  7  1  0      
  7  8  2  0      
  7 36  1  0      
  8  9  1  0      
  9 10  1  0      
  9 19  2  0      
 10 11  1  0      
 10 37  1  0      
 11 12  1  0      
 11 18  2  0      
 12 13  2  0      
 12 38  1  0      
 13 14  1  0      
 13 39  1  0      
 14 15  1  0      
 14 16  2  0      
 16 17  1  0      
 16 18  1  0      
 18 40  1  0      
 19 20  1  0      
 20 21  2  0      
 20 41  1  0      
 21 22  1  0      
 22 23  1  0      
 23 24  1  0      
 23 42  1  0      
 23 43  1  0      
 24 25  1  0      
 24 44  1  0      
 24 45  1  0      
 25 26  1  0      
 25 46  1  0      
 25 47  1  0      
 26 27  1  0      
 26 31  1  0      
 27 28  1  0      
 27 48  1  0      
 27 49  1  0      
 28 29  1  0      
 28 50  1  0      
 28 51  1  0      
 29 30  1  0      
 30 31  1  0      
 30 52  1  0      
 30 53  1  0      
 31 54  1  0      
 31 55  1  0      
M  END
