
  Chem3D Core 15.011061513343D

  0  0  0     0  0              0 V3000
M  V30 BEGIN CTAB
M  V30 COUNTS 80 81 0 0 0
M  V30 BEGIN ATOM
M  V30 1 C -1.350685 4.599378 0.596297 0
M  V30 2 C -2.205884 3.821030 1.323396 0
M  V30 3 C -0.518157 2.145459 1.509545 0
M  V30 4 C 0.328086 2.909774 0.757780 0
M  V30 5 C -0.112055 4.103790 0.336008 0
M  V30 6 O -1.630440 5.697289 0.156335 0
M  V30 7 O -0.133281 1.062935 1.912749 0
M  V30 8 N 1.544071 2.378476 0.493732 0
M  V30 9 C 2.678500 2.865347 -0.089986 0
M  V30 10 O 2.787089 4.036717 -0.361788 0
M  V30 11 C 3.688302 1.979616 -0.352953 0
M  V30 12 C 4.921005 2.578896 -1.015269 0
M  V30 13 C 3.578204 0.666971 -0.050267 0
M  V30 14 C 4.475509 -0.300054 -0.311602 0
M  V30 15 C 4.356020 -1.606871 -0.014937 0
M  V30 16 C 3.243157 -2.319291 0.733163 0
M  V30 17 O 3.825646 -3.035295 1.807415 0
M  V30 18 C 4.282128 -2.196460 2.847026 0
M  V30 19 C 2.479639 -3.306189 -0.175632 0
M  V30 20 O 1.968248 -4.414237 0.544713 0
M  V30 21 C 1.293781 -4.240422 1.716010 0
M  V30 22 O 0.831241 -3.189922 2.087668 0
M  V30 23 N 1.195892 -5.317486 2.533981 0
M  V30 24 C 0.112448 -2.850596 -0.917752 0
M  V30 25 C -1.105199 -2.163087 -1.512361 0
M  V30 26 C 1.432119 -2.620326 -1.064117 0
M  V30 27 C 1.986433 -1.656153 -2.084611 0
M  V30 28 C -3.332001 0.592791 0.275326 0
M  V30 29 C -1.774009 2.612005 1.760109 0
M  V30 30 C -2.726382 1.697170 2.530301 0
M  V30 31 C -3.096286 0.388640 1.789460 0
M  V30 32 C -4.299536 -0.285817 2.473325 0
M  V30 33 C -3.001041 -0.592165 -0.653942 0
M  V30 34 O -3.901806 -1.656683 -0.495978 0
M  V30 35 C -5.194163 -1.411509 -1.007607 0
M  V30 36 C -1.587196 -1.154201 -0.453118 0
M  V30 37 O -0.635129 -0.119339 -0.330533 0
M  V30 38 C -0.995848 -1.575880 -2.925028 0
M  V30 39 C -4.189336 5.204401 0.926467 0
M  V30 40 O -3.519323 4.158347 1.585806 0
M  V30 41 H 0.528201 4.750318 -0.281812 0
M  V30 42 H 1.542046 1.419494 0.803944 0
M  V30 43 H 5.333317 3.407603 -0.395070 0
M  V30 44 H 5.776347 1.892869 -1.169522 0
M  V30 45 H 4.660833 2.980593 -2.021522 0
M  V30 46 H 2.664793 0.314768 0.444221 0
M  V30 47 H 5.409132 -0.049975 -0.838428 0
M  V30 48 H 5.182284 -2.271666 -0.330112 0
M  V30 49 H 2.507127 -1.603550 1.156181 0
M  V30 50 H 4.723050 -2.842991 3.638247 0
M  V30 51 H 5.067653 -1.501867 2.477800 0
M  V30 52 H 3.431899 -1.629224 3.286776 0
M  V30 53 H 3.218822 -3.774687 -0.872938 0
M  V30 54 H 0.721215 -5.200133 3.416556 0
M  V30 55 H 1.605819 -6.192205 2.242279 0
M  V30 56 H -0.196682 -3.599370 -0.171486 0
M  V30 57 H -1.875740 -2.973103 -1.602292 0
M  V30 58 H 3.078982 -1.785714 -2.235724 0
M  V30 59 H 1.568288 -1.847414 -3.094243 0
M  V30 60 H 1.793342 -0.601733 -1.789071 0
M  V30 61 H -2.700892 1.431124 -0.095881 0
M  V30 62 H -4.362530 0.979085 0.114574 0
M  V30 63 H -2.272494 1.463151 3.522493 0
M  V30 64 H -3.677682 2.212104 2.787907 0
M  V30 65 H -2.235259 -0.302740 1.933932 0
M  V30 66 H -4.120006 -0.414147 3.565325 0
M  V30 67 H -4.500189 -1.298202 2.058786 0
M  V30 68 H -5.226359 0.319185 2.351521 0
M  V30 69 H -3.069138 -0.225395 -1.705412 0
M  V30 70 H -5.776347 -2.356135 -0.920638 0
M  V30 71 H -5.718755 -0.634026 -0.413381 0
M  V30 72 H -5.144313 -1.127636 -2.081811 0
M  V30 73 H -1.582434 -1.686441 0.527647 0
M  V30 74 H -0.172538 -0.210028 0.510827 0
M  V30 75 H -1.995832 -1.303566 -3.330921 0
M  V30 76 H -0.576477 -2.321376 -3.638247 0
M  V30 77 H -0.387419 -0.646168 -2.955437 0
M  V30 78 H -5.266948 5.129838 1.196232 0
M  V30 79 H -3.833944 6.192205 1.293735 0
M  V30 80 H -4.110196 5.086941 -0.177190 0
M  V30 END ATOM
M  V30 BEGIN BOND
M  V30 1 1 1 2
M  V30 2 1 1 5
M  V30 3 2 1 6
M  V30 4 2 2 29
M  V30 5 1 2 40
M  V30 6 1 3 4
M  V30 7 2 3 7
M  V30 8 1 3 29
M  V30 9 2 4 5
M  V30 10 1 4 8
M  V30 11 1 5 41
M  V30 12 1 8 9
M  V30 13 1 8 42
M  V30 14 2 9 10
M  V30 15 1 9 11
M  V30 16 1 11 12
M  V30 17 2 11 13
M  V30 18 1 12 43
M  V30 19 1 12 44
M  V30 20 1 12 45
M  V30 21 1 13 14
M  V30 22 1 13 46
M  V30 23 2 14 15
M  V30 24 1 14 47
M  V30 25 1 15 16
M  V30 26 1 15 48
M  V30 27 1 16 17
M  V30 28 1 16 19
M  V30 29 1 16 49
M  V30 30 1 17 18
M  V30 31 1 18 50
M  V30 32 1 18 51
M  V30 33 1 18 52
M  V30 34 1 19 20
M  V30 35 1 19 26
M  V30 36 1 19 53
M  V30 37 1 20 21
M  V30 38 2 21 22
M  V30 39 1 21 23
M  V30 40 1 23 54
M  V30 41 1 23 55
M  V30 42 1 24 25
M  V30 43 2 24 26
M  V30 44 1 24 56
M  V30 45 1 25 36
M  V30 46 1 25 38
M  V30 47 1 25 57
M  V30 48 1 26 27
M  V30 49 1 27 58
M  V30 50 1 27 59
M  V30 51 1 27 60
M  V30 52 1 28 31
M  V30 53 1 28 33
M  V30 54 1 28 61
M  V30 55 1 28 62
M  V30 56 1 29 30
M  V30 57 1 30 31
M  V30 58 1 30 63
M  V30 59 1 30 64
M  V30 60 1 31 32
M  V30 61 1 31 65
M  V30 62 1 32 66
M  V30 63 1 32 67
M  V30 64 1 32 68
M  V30 65 1 33 34
M  V30 66 1 33 36
M  V30 67 1 33 69
M  V30 68 1 34 35
M  V30 69 1 35 70
M  V30 70 1 35 71
M  V30 71 1 35 72
M  V30 72 1 36 37
M  V30 73 1 36 73
M  V30 74 1 37 74
M  V30 75 1 38 75
M  V30 76 1 38 76
M  V30 77 1 38 77
M  V30 78 1 39 40
M  V30 79 1 39 78
M  V30 80 1 39 79
M  V30 81 1 39 80
M  V30 END BOND
M  V30 END CTAB
M  END
