
  Chem3D Core 15.008171513373D

 29 30  0  0  0  0  0  0  0  0999 V2000
    3.4809    1.9063    1.3753 N   0  0  0  0  0  0  0  0  0  0  0  0
    2.3756    1.5504    0.8643 C   0  0  0  0  0  0  0  0  0  0  0  0
    1.5098    0.9024    1.6616 C   0  0  0  0  0  0  0  0  0  0  0  0
    0.3346    0.5172    1.1472 C   0  0  0  0  0  0  0  0  0  0  0  0
    0.0499    0.7918   -0.1430 N   0  0  0  0  0  0  0  0  0  0  0  0
   -1.2282    0.3792   -0.7516 C   0  0  0  0  0  0  0  0  0  0  0  0
   -2.3063    0.3638    0.1681 O   0  0  0  0  0  0  0  0  0  0  0  0
   -3.2202   -0.6315   -0.2143 C   0  0  0  0  0  0  0  0  0  0  0  0
   -3.4551   -1.5835    0.9499 C   0  0  0  0  0  0  0  0  0  0  0  0
   -4.0599   -0.8843    2.0192 O   0  0  0  0  0  0  0  0  0  0  0  0
   -2.6370   -1.3255   -1.4387 C   0  0  0  0  0  0  0  0  0  0  0  0
   -3.1704   -0.7312   -2.6000 O   0  0  0  0  0  0  0  0  0  0  0  0
   -1.1903   -1.0037   -1.3235 C   0  0  0  0  0  0  0  0  0  0  0  0
   -0.5338   -1.1174   -2.4584 F   0  0  0  0  0  0  0  0  0  0  0  0
   -0.6112   -1.8306   -0.4757 F   0  0  0  0  0  0  0  0  0  0  0  0
    1.0008    1.4450   -0.8941 C   0  0  0  0  0  0  0  0  0  0  0  0
    0.7951    1.6893   -2.0653 O   0  0  0  0  0  0  0  0  0  0  0  0
    2.0958    1.7906   -0.3477 N   0  0  0  0  0  0  0  0  0  0  0  0
    4.1899    2.4142    0.7913 H   0  0  0  0  0  0  0  0  0  0  0  0
    3.6987    1.6989    2.3808 H   0  0  0  0  0  0  0  0  0  0  0  0
    1.7447    0.6818    2.7164 H   0  0  0  0  0  0  0  0  0  0  0  0
   -0.3898   -0.0254    1.7725 H   0  0  0  0  0  0  0  0  0  0  0  0
   -1.5370    1.1058   -1.5416 H   0  0  0  0  0  0  0  0  0  0  0  0
   -4.1899   -0.1397   -0.4684 H   0  0  0  0  0  0  0  0  0  0  0  0
   -4.1480   -2.4063    0.6639 H   0  0  0  0  0  0  0  0  0  0  0  0
   -2.5079   -2.0252    1.3297 H   0  0  0  0  0  0  0  0  0  0  0  0
   -4.1878   -1.4762    2.7641 H   0  0  0  0  0  0  0  0  0  0  0  0
   -2.8516   -2.4142   -1.4995 H   0  0  0  0  0  0  0  0  0  0  0  0
   -4.0639   -1.0375   -2.7641 H   0  0  0  0  0  0  0  0  0  0  0  0
  1  2  1  0      
  1 19  1  0      
  1 20  1  0      
  3  2  1  0      
  2 18  2  0      
  4  3  2  0      
  3 21  1  0      
  5  4  1  0      
  4 22  1  0      
  6  5  1  0      
  5 16  1  0      
  6  7  1  0      
  6 13  1  0      
  6 23  1  0      
  8  7  1  0      
  8  9  1  0      
 11  8  1  0      
  8 24  1  0      
  9 10  1  0      
  9 25  1  0      
  9 26  1  0      
 10 27  1  0      
 11 12  1  0      
 13 11  1  0      
 11 28  1  0      
 12 29  1  0      
 13 14  1  0      
 13 15  1  0      
 16 17  2  0      
 18 16  1  0      
M  END
