
  Chem3D Core 15.003141618043D

 58 60  0  0  0  0  0  0  0  0999 V2000
   -0.7210   -7.2001    0.7802 O   0  0  0  0  0  0  0  0  0  0  0  0
   -0.6830   -6.0719    1.2140 C   0  0  0  0  0  0  0  0  0  0  0  0
   -1.7901   -5.4697    1.7484 C   0  0  0  0  0  0  0  0  0  0  0  0
   -1.7780   -4.2893    2.2116 N   0  0  0  0  0  0  0  0  0  0  0  0
   -2.8405   -3.7991    2.6895 C   0  0  0  0  0  0  0  0  0  0  0  0
   -3.9974   -4.4767    2.7330 C   0  0  0  0  0  0  0  0  0  0  0  0
   -5.2695   -3.8990    3.2947 C   0  0  0  0  0  0  0  0  0  0  0  0
   -4.0397   -5.6548    2.2760 N   0  0  0  0  0  0  0  0  0  0  0  0
   -2.9675   -6.1326    1.8006 C   0  0  0  0  0  0  0  0  0  0  0  0
    0.5410   -5.4692    1.1212 N   0  0  0  0  0  0  0  0  0  0  0  0
    0.9046   -4.1151    1.5491 C   0  0  0  0  0  0  0  0  0  0  0  0
    2.3862   -3.8694    1.2182 C   0  0  0  0  0  0  0  0  0  0  0  0
    2.9451   -2.4975    1.5466 C   0  0  0  0  0  0  0  0  0  0  0  0
    4.2016   -2.1979    1.1700 C   0  0  0  0  0  0  0  0  0  0  0  0
    4.7488   -1.0013    1.4328 C   0  0  0  0  0  0  0  0  0  0  0  0
    4.0481   -0.0605    2.0868 C   0  0  0  0  0  0  0  0  0  0  0  0
    4.7401    1.5777    2.3872 S   0  0  0  0  0  0  0  0  0  0  0  0
    6.1644    1.5502    2.0780 O   0  0  0  0  0  0  0  0  0  0  0  0
    3.7862    1.9823    1.0309 N   0  0  0  0  0  0  0  0  0  0  0  0
    3.6800    3.2532    0.5157 C   0  0  0  0  0  0  0  0  0  0  0  0
    2.8425    3.4065   -0.5557 N   0  0  0  0  0  0  0  0  0  0  0  0
    2.6435    4.6898   -1.2440 C   0  0  0  0  0  0  0  0  0  0  0  0
    1.1818    4.8049   -1.7090 C   0  0  0  0  0  0  0  0  0  0  0  0
    0.9422    6.1130   -2.4768 C   0  0  0  0  0  0  0  0  0  0  0  0
    1.8987    6.2283   -3.6720 C   0  0  0  0  0  0  0  0  0  0  0  0
    3.3597    6.1173   -3.2136 C   0  0  0  0  0  0  0  0  0  0  0  0
    3.5947    4.8090   -2.4451 C   0  0  0  0  0  0  0  0  0  0  0  0
    4.2984    4.1673    0.9962 O   0  0  0  0  0  0  0  0  0  0  0  0
    4.1864    2.0590    3.6472 O   0  0  0  0  0  0  0  0  0  0  0  0
    2.7895   -0.3474    2.4608 C   0  0  0  0  0  0  0  0  0  0  0  0
    2.2499   -1.5479    2.1977 C   0  0  0  0  0  0  0  0  0  0  0  0
   -2.7805   -2.7700    3.0798 H   0  0  0  0  0  0  0  0  0  0  0  0
   -5.4360   -2.8678    2.9084 H   0  0  0  0  0  0  0  0  0  0  0  0
   -6.1644   -4.5044    3.0249 H   0  0  0  0  0  0  0  0  0  0  0  0
   -5.2071   -3.8521    4.4058 H   0  0  0  0  0  0  0  0  0  0  0  0
   -3.0874   -7.1626    1.4246 H   0  0  0  0  0  0  0  0  0  0  0  0
    1.2599   -6.0590    0.7022 H   0  0  0  0  0  0  0  0  0  0  0  0
    0.2920   -3.3690    0.9894 H   0  0  0  0  0  0  0  0  0  0  0  0
    0.7625   -4.0242    2.6519 H   0  0  0  0  0  0  0  0  0  0  0  0
    3.0033   -4.6263    1.7603 H   0  0  0  0  0  0  0  0  0  0  0  0
    2.5315   -4.0447    0.1245 H   0  0  0  0  0  0  0  0  0  0  0  0
    4.8015   -2.9522    0.6331 H   0  0  0  0  0  0  0  0  0  0  0  0
    5.7830   -0.8115    1.1018 H   0  0  0  0  0  0  0  0  0  0  0  0
    3.2415    1.2681    0.5672 H   0  0  0  0  0  0  0  0  0  0  0  0
    2.4148    2.5719   -0.9583 H   0  0  0  0  0  0  0  0  0  0  0  0
    2.8316    5.5387   -0.5429 H   0  0  0  0  0  0  0  0  0  0  0  0
    0.9333    3.9388   -2.3674 H   0  0  0  0  0  0  0  0  0  0  0  0
    0.4991    4.7533   -0.8273 H   0  0  0  0  0  0  0  0  0  0  0  0
   -0.1156    6.1578   -2.8307 H   0  0  0  0  0  0  0  0  0  0  0  0
    1.0960    6.9807   -1.7919 H   0  0  0  0  0  0  0  0  0  0  0  0
    1.6766    5.4172   -4.4058 H   0  0  0  0  0  0  0  0  0  0  0  0
    1.7369    7.2001   -4.1969 H   0  0  0  0  0  0  0  0  0  0  0  0
    4.0401    6.1665   -4.0972 H   0  0  0  0  0  0  0  0  0  0  0  0
    3.6106    6.9844   -2.5573 H   0  0  0  0  0  0  0  0  0  0  0  0
    3.4380    3.9420   -3.1297 H   0  0  0  0  0  0  0  0  0  0  0  0
    4.6531    4.7635   -2.0932 H   0  0  0  0  0  0  0  0  0  0  0  0
    2.1737    0.4038    2.9838 H   0  0  0  0  0  0  0  0  0  0  0  0
    1.2149   -1.7291    2.5267 H   0  0  0  0  0  0  0  0  0  0  0  0
  1  2  2  0      
  2  3  1  0      
  2 10  1  0      
  3  4  2  0      
  3  9  1  0      
  4  5  1  0      
  5  6  2  0      
  5 32  1  0      
  6  7  1  0      
  6  8  1  0      
  7 33  1  0      
  7 34  1  0      
  7 35  1  0      
  8  9  2  0      
  9 36  1  0      
 10 11  1  0      
 10 37  1  0      
 11 12  1  0      
 11 38  1  0      
 11 39  1  0      
 12 13  1  0      
 12 40  1  0      
 12 41  1  0      
 13 14  1  0      
 13 31  2  0      
 14 15  2  0      
 14 42  1  0      
 15 16  1  0      
 15 43  1  0      
 16 17  1  0      
 16 30  2  0      
 17 18  2  0      
 17 19  1  0      
 17 29  2  0      
 19 20  1  0      
 19 44  1  0      
 20 21  1  0      
 20 28  2  0      
 21 22  1  0      
 21 45  1  0      
 22 23  1  0      
 22 27  1  0      
 22 46  1  0      
 23 24  1  0      
 23 47  1  0      
 23 48  1  0      
 24 25  1  0      
 24 49  1  0      
 24 50  1  0      
 25 26  1  0      
 25 51  1  0      
 25 52  1  0      
 26 27  1  0      
 26 53  1  0      
 26 54  1  0      
 27 55  1  0      
 27 56  1  0      
 30 31  1  0      
 30 57  1  0      
 31 58  1  0      
M  END
