
  Chem3D Core 15.003141618043D

 61 63  0  0  0  0  0  0  0  0999 V2000
    5.1183   -4.9133   -0.5568 C   0  0  0  0  0  0  0  0  0  0  0  0
    4.4513   -5.1987    0.6518 O   0  0  0  0  0  0  0  0  0  0  0  0
    3.7368   -6.3720    0.6349 C   0  0  0  0  0  0  0  0  0  0  0  0
    4.4137   -7.5159    0.8652 C   0  0  0  0  0  0  0  0  0  0  0  0
    3.8342   -8.7232    0.8699 C   0  0  0  0  0  0  0  0  0  0  0  0
    2.5162   -8.8052    0.6547 C   0  0  0  0  0  0  0  0  0  0  0  0
    1.7395  -10.3488    0.6490 Cl  0  0  0  0  0  0  0  0  0  0  0  0
    1.8102   -7.6788    0.4751 C   0  0  0  0  0  0  0  0  0  0  0  0
    2.3887   -6.4579    0.4899 C   0  0  0  0  0  0  0  0  0  0  0  0
    1.5730   -5.3704    0.3273 C   0  0  0  0  0  0  0  0  0  0  0  0
    0.4472   -5.4433   -0.1105 O   0  0  0  0  0  0  0  0  0  0  0  0
    2.0154   -4.1795    0.8315 N   0  0  0  0  0  0  0  0  0  0  0  0
    1.2435   -2.9367    0.7366 C   0  0  0  0  0  0  0  0  0  0  0  0
    2.1957   -1.7418    0.8914 C   0  0  0  0  0  0  0  0  0  0  0  0
    1.4391   -0.4337    0.8007 C   0  0  0  0  0  0  0  0  0  0  0  0
    0.9748    0.1744    1.9065 C   0  0  0  0  0  0  0  0  0  0  0  0
    0.3030    1.3335    1.8269 C   0  0  0  0  0  0  0  0  0  0  0  0
    0.0802    1.9053    0.6326 C   0  0  0  0  0  0  0  0  0  0  0  0
    0.5374    1.3043   -0.4780 C   0  0  0  0  0  0  0  0  0  0  0  0
    1.2102    0.1464   -0.3905 C   0  0  0  0  0  0  0  0  0  0  0  0
   -0.8253    3.4424    0.5182 S   0  0  0  0  0  0  0  0  0  0  0  0
   -1.9222    3.6727    1.4600 O   0  0  0  0  0  0  0  0  0  0  0  0
   -0.1531    4.5895   -0.0946 O   0  0  0  0  0  0  0  0  0  0  0  0
   -1.8921    3.2530   -0.8039 N   0  0  0  0  0  0  0  0  0  0  0  0
   -2.7649    4.2063   -1.2625 C   0  0  0  0  0  0  0  0  0  0  0  0
   -3.4293    3.9702   -2.2362 O   0  0  0  0  0  0  0  0  0  0  0  0
   -2.8137    5.3880   -0.5768 N   0  0  0  0  0  0  0  0  0  0  0  0
   -3.6214    6.5400   -0.9935 C   0  0  0  0  0  0  0  0  0  0  0  0
   -2.7791    7.4993   -1.8487 C   0  0  0  0  0  0  0  0  0  0  0  0
   -3.5841    8.7459   -2.2421 C   0  0  0  0  0  0  0  0  0  0  0  0
   -4.1209    9.4660   -0.9971 C   0  0  0  0  0  0  0  0  0  0  0  0
   -4.9660    8.5141   -0.1388 C   0  0  0  0  0  0  0  0  0  0  0  0
   -4.1595    7.2668    0.2502 C   0  0  0  0  0  0  0  0  0  0  0  0
    5.8751   -5.6985   -0.7767 H   0  0  0  0  0  0  0  0  0  0  0  0
    4.3806   -4.8427   -1.3875 H   0  0  0  0  0  0  0  0  0  0  0  0
    5.6336   -3.9332   -0.4443 H   0  0  0  0  0  0  0  0  0  0  0  0
    5.5024   -7.4674    1.0429 H   0  0  0  0  0  0  0  0  0  0  0  0
    4.4432   -9.6256    1.0453 H   0  0  0  0  0  0  0  0  0  0  0  0
    0.7219   -7.7978    0.3397 H   0  0  0  0  0  0  0  0  0  0  0  0
    2.8543   -4.1733    1.4048 H   0  0  0  0  0  0  0  0  0  0  0  0
    0.7354   -2.8640   -0.2537 H   0  0  0  0  0  0  0  0  0  0  0  0
    0.4700   -2.9251    1.5396 H   0  0  0  0  0  0  0  0  0  0  0  0
    2.7314   -1.8097    1.8672 H   0  0  0  0  0  0  0  0  0  0  0  0
    2.9844   -1.7809    0.1033 H   0  0  0  0  0  0  0  0  0  0  0  0
    1.1438   -0.2823    2.8958 H   0  0  0  0  0  0  0  0  0  0  0  0
   -0.0639    1.8069    2.7530 H   0  0  0  0  0  0  0  0  0  0  0  0
    0.3690    1.7505   -1.4725 H   0  0  0  0  0  0  0  0  0  0  0  0
    1.5765   -0.3343   -1.3129 H   0  0  0  0  0  0  0  0  0  0  0  0
   -1.8821    2.3952   -1.3332 H   0  0  0  0  0  0  0  0  0  0  0  0
   -2.1535    5.4872    0.2004 H   0  0  0  0  0  0  0  0  0  0  0  0
   -4.5034    6.1977   -1.5870 H   0  0  0  0  0  0  0  0  0  0  0  0
   -1.8718    7.8064   -1.2763 H   0  0  0  0  0  0  0  0  0  0  0  0
   -2.4254    6.9727   -2.7672 H   0  0  0  0  0  0  0  0  0  0  0  0
   -2.9433    9.4404   -2.8364 H   0  0  0  0  0  0  0  0  0  0  0  0
   -4.4377    8.4464   -2.8958 H   0  0  0  0  0  0  0  0  0  0  0  0
   -3.2654    9.8514   -0.3927 H   0  0  0  0  0  0  0  0  0  0  0  0
   -4.7325   10.3488   -1.3017 H   0  0  0  0  0  0  0  0  0  0  0  0
   -5.3175    9.0417    0.7801 H   0  0  0  0  0  0  0  0  0  0  0  0
   -5.8751    8.2071   -0.7088 H   0  0  0  0  0  0  0  0  0  0  0  0
   -3.3047    7.5669    0.9019 H   0  0  0  0  0  0  0  0  0  0  0  0
   -4.7986    6.5727    0.8469 H   0  0  0  0  0  0  0  0  0  0  0  0
  1  2  1  0      
  1 34  1  0      
  1 35  1  0      
  1 36  1  0      
  2  3  1  0      
  3  4  1  0      
  3  9  2  0      
  4  5  2  0      
  4 37  1  0      
  5  6  1  0      
  5 38  1  0      
  6  7  1  0      
  6  8  2  0      
  8  9  1  0      
  8 39  1  0      
  9 10  1  0      
 10 11  2  0      
 10 12  1  0      
 12 13  1  0      
 12 40  1  0      
 13 14  1  0      
 13 41  1  0      
 13 42  1  0      
 14 15  1  0      
 14 43  1  0      
 14 44  1  0      
 15 16  1  0      
 15 20  2  0      
 16 17  2  0      
 16 45  1  0      
 17 18  1  0      
 17 46  1  0      
 18 19  2  0      
 18 21  1  0      
 19 20  1  0      
 19 47  1  0      
 20 48  1  0      
 21 22  2  0      
 21 23  2  0      
 21 24  1  0      
 24 25  1  0      
 24 49  1  0      
 25 26  2  0      
 25 27  1  0      
 27 28  1  0      
 27 50  1  0      
 28 29  1  0      
 28 33  1  0      
 28 51  1  0      
 29 30  1  0      
 29 52  1  0      
 29 53  1  0      
 30 31  1  0      
 30 54  1  0      
 30 55  1  0      
 31 32  1  0      
 31 56  1  0      
 31 57  1  0      
 32 33  1  0      
 32 58  1  0      
 32 59  1  0      
 33 60  1  0      
 33 61  1  0      
M  END
