
  Chem3D Core 15.003111615513D

 47 49  0  0  0  0  0  0  0  0999 V2000
    0.2453    5.8594   -1.3235 C   0  0  0  0  0  0  0  0  0  0  0  0
   -0.2902    6.8900   -1.6620 O   0  0  0  0  0  0  0  0  0  0  0  0
   -0.4132    4.6645   -1.2236 C   0  0  0  0  0  0  0  0  0  0  0  0
    0.1940    3.5136   -0.8637 C   0  0  0  0  0  0  0  0  0  0  0  0
   -1.7302    4.6121   -1.4952 C   0  0  0  0  0  0  0  0  0  0  0  0
   -0.4345    2.3185   -0.7582 C   0  0  0  0  0  0  0  0  0  0  0  0
   -2.3922    3.4520   -1.4037 C   0  0  0  0  0  0  0  0  0  0  0  0
   -1.7532    2.3306   -1.0422 C   0  0  0  0  0  0  0  0  0  0  0  0
    1.5760    5.8572   -1.0027 N   0  0  0  0  0  0  0  0  0  0  0  0
    2.4086    7.0629   -1.0470 C   0  0  0  0  0  0  0  0  0  0  0  0
    2.1894    7.9221    0.1938 C   0  0  0  0  0  0  0  0  0  0  0  0
    3.1087    8.9955    0.1871 O   0  0  0  0  0  0  0  0  0  0  0  0
    1.6399   -0.9431    0.3331 N   0  0  0  0  0  0  0  0  0  0  0  0
    1.4790    1.2650   -0.1357 N   0  0  0  0  0  0  0  0  0  0  0  0
    2.1059    0.2229    0.2050 C   0  0  0  0  0  0  0  0  0  0  0  0
   -0.3136   -0.0355   -0.2681 C   0  0  0  0  0  0  0  0  0  0  0  0
    0.4080   -1.1165    0.0999 C   0  0  0  0  0  0  0  0  0  0  0  0
    0.2365    1.1935   -0.3906 C   0  0  0  0  0  0  0  0  0  0  0  0
   -0.2307   -2.2164    0.1757 N   0  0  0  0  0  0  0  0  0  0  0  0
    1.4438   -5.1949    1.1145 C   0  0  0  0  0  0  0  0  0  0  0  0
    0.4422   -6.0937    1.0794 C   0  0  0  0  0  0  0  0  0  0  0  0
   -0.7595   -5.6070    0.7149 C   0  0  0  0  0  0  0  0  0  0  0  0
   -0.9448   -4.3092    0.4248 C   0  0  0  0  0  0  0  0  0  0  0  0
    0.0642   -3.4195    0.4733 C   0  0  0  0  0  0  0  0  0  0  0  0
    1.2707   -3.8955    0.8258 C   0  0  0  0  0  0  0  0  0  0  0  0
    0.7225   -7.4029    1.3806 O   0  0  0  0  0  0  0  0  0  0  0  0
   -0.2767   -8.4139    1.1824 C   0  0  0  0  0  0  0  0  0  0  0  0
    0.2253   -9.6180    1.4402 F   0  0  0  0  0  0  0  0  0  0  0  0
   -1.3289   -8.2769    1.9803 F   0  0  0  0  0  0  0  0  0  0  0  0
   -0.7299   -8.4641   -0.0644 F   0  0  0  0  0  0  0  0  0  0  0  0
    1.2693    3.5472   -0.6464 H   0  0  0  0  0  0  0  0  0  0  0  0
   -2.3124    5.4983   -1.7972 H   0  0  0  0  0  0  0  0  0  0  0  0
   -3.4727    3.4223   -1.6284 H   0  0  0  0  0  0  0  0  0  0  0  0
   -2.3886    1.4341   -0.9977 H   0  0  0  0  0  0  0  0  0  0  0  0
    2.0018    4.9995   -0.6604 H   0  0  0  0  0  0  0  0  0  0  0  0
    3.4727    6.7300   -1.0801 H   0  0  0  0  0  0  0  0  0  0  0  0
    2.2233    7.6427   -1.9803 H   0  0  0  0  0  0  0  0  0  0  0  0
    1.1668    8.3594    0.2182 H   0  0  0  0  0  0  0  0  0  0  0  0
    2.3594    7.3416    1.1281 H   0  0  0  0  0  0  0  0  0  0  0  0
    2.8821    9.6180    0.8818 H   0  0  0  0  0  0  0  0  0  0  0  0
    3.1827    0.3451    0.4145 H   0  0  0  0  0  0  0  0  0  0  0  0
   -1.3826   -0.1982   -0.4685 H   0  0  0  0  0  0  0  0  0  0  0  0
   -1.2493   -2.1121   -0.0656 H   0  0  0  0  0  0  0  0  0  0  0  0
    2.4527   -5.5452    1.3950 H   0  0  0  0  0  0  0  0  0  0  0  0
   -1.6401   -6.2642    0.6460 H   0  0  0  0  0  0  0  0  0  0  0  0
   -1.9628   -3.9886    0.1391 H   0  0  0  0  0  0  0  0  0  0  0  0
    2.1608   -3.2537    0.8912 H   0  0  0  0  0  0  0  0  0  0  0  0
  1  2  2  0      
  1  3  1  0      
  1  9  1  0      
  3  4  1  0      
  3  5  2  0      
  4  6  2  0      
  4 31  1  0      
  7  5  1  0      
  5 32  1  0      
  6  8  1  0      
  6 18  1  0      
  8  7  2  0      
  7 33  1  0      
  8 34  1  0      
  9 10  1  0      
  9 35  1  0      
 10 11  1  0      
 10 36  1  0      
 10 37  1  0      
 11 12  1  0      
 11 38  1  0      
 11 39  1  0      
 12 40  1  0      
 13 15  2  0      
 17 13  1  0      
 15 14  1  0      
 18 14  2  0      
 15 41  1  0      
 16 17  2  0      
 18 16  1  0      
 16 42  1  0      
 17 19  1  0      
 19 24  1  0      
 19 43  1  0      
 20 21  1  0      
 20 25  2  0      
 20 44  1  0      
 21 22  2  0      
 21 26  1  0      
 22 23  1  0      
 22 45  1  0      
 23 24  2  0      
 23 46  1  0      
 24 25  1  0      
 25 47  1  0      
 26 27  1  0      
 27 28  1  0      
 27 29  1  0      
 27 30  1  0      
M  END
