
  Chem3D Core 15.003181610403D

 83 88  0  0  0  0  0  0  0  0999 V2000
    7.3644   -2.6328   -0.5808 O   0  0  0  0  0  0  0  0  0  0  0  0
    6.8391   -1.6348   -0.1491 C   0  0  0  0  0  0  0  0  0  0  0  0
    6.2355   -1.6624    1.1915 C   0  0  0  0  0  0  0  0  0  0  0  0
    4.8072   -1.3315    1.1260 C   0  0  0  0  0  0  0  0  0  0  0  0
    3.7883   -2.2291    1.0937 N   0  0  0  0  0  0  0  0  0  0  0  0
    3.6517   -3.5537    0.8853 C   0  0  0  0  0  0  0  0  0  0  0  0
    4.6228   -4.4216    0.5582 C   0  0  0  0  0  0  0  0  0  0  0  0
    4.3597   -5.7253    0.3736 C   0  0  0  0  0  0  0  0  0  0  0  0
    3.1101   -6.1938    0.5079 C   0  0  0  0  0  0  0  0  0  0  0  0
    2.8479   -7.4781    0.3253 F   0  0  0  0  0  0  0  0  0  0  0  0
    2.1286   -5.3364    0.8250 C   0  0  0  0  0  0  0  0  0  0  0  0
    2.3999   -4.0348    1.0078 C   0  0  0  0  0  0  0  0  0  0  0  0
    4.4923   -0.1667    1.1644 O   0  0  0  0  0  0  0  0  0  0  0  0
    7.0546   -1.1924    2.3697 C   0  0  0  0  0  0  0  0  0  0  0  0
    6.6989   -2.6484    2.2404 C   0  0  0  0  0  0  0  0  0  0  0  0
    6.6867   -0.5958   -1.0124 N   0  0  0  0  0  0  0  0  0  0  0  0
    6.5812    0.7419   -0.8857 C   0  0  0  0  0  0  0  0  0  0  0  0
    6.7795    1.4459    0.2392 C   0  0  0  0  0  0  0  0  0  0  0  0
    6.6427    2.7803    0.2543 C   0  0  0  0  0  0  0  0  0  0  0  0
    6.3089    3.4717   -0.8502 C   0  0  0  0  0  0  0  0  0  0  0  0
    6.1635    4.8331   -0.8259 O   0  0  0  0  0  0  0  0  0  0  0  0
    4.8570    5.2402   -0.7971 C   0  0  0  0  0  0  0  0  0  0  0  0
    4.0957    5.1562    0.3100 C   0  0  0  0  0  0  0  0  0  0  0  0
    2.8113    5.5573    0.3143 C   0  0  0  0  0  0  0  0  0  0  0  0
    2.1405    5.4337    1.4780 N   0  0  0  0  0  0  0  0  0  0  0  0
    0.8592    5.7257    1.8458 C   0  0  0  0  0  0  0  0  0  0  0  0
   -0.1737    5.8645    0.9481 N   0  0  0  0  0  0  0  0  0  0  0  0
   -1.3010    6.7593    1.1883 C   0  0  0  0  0  0  0  0  0  0  0  0
   -2.5576    5.9371    1.5074 C   0  0  0  0  0  0  0  0  0  0  0  0
   -2.8744    4.9744    0.3436 C   0  0  0  0  0  0  0  0  0  0  0  0
   -4.1439    4.2696    0.5402 N   0  0  0  0  0  0  0  0  0  0  0  0
   -4.5873    3.5757   -0.6625 C   0  0  0  0  0  0  0  0  0  0  0  0
   -5.9936    2.9836   -0.4682 C   0  0  0  0  0  0  0  0  0  0  0  0
   -6.0099    2.0536    0.6494 N   0  0  0  0  0  0  0  0  0  0  0  0
   -7.3300    1.4716    0.8347 C   0  0  0  0  0  0  0  0  0  0  0  0
   -5.5558    2.7307    1.8535 C   0  0  0  0  0  0  0  0  0  0  0  0
   -4.1526    3.3308    1.6532 C   0  0  0  0  0  0  0  0  0  0  0  0
   -1.6379    4.0907    0.0860 C   0  0  0  0  0  0  0  0  0  0  0  0
   -0.3859    4.9497   -0.1705 C   0  0  0  0  0  0  0  0  0  0  0  0
    0.6716    5.9146    3.0185 O   0  0  0  0  0  0  0  0  0  0  0  0
    2.2799    6.0452   -0.7266 N   0  0  0  0  0  0  0  0  0  0  0  0
    2.9661    6.1429   -1.7835 C   0  0  0  0  0  0  0  0  0  0  0  0
    4.2474    5.7595   -1.8771 C   0  0  0  0  0  0  0  0  0  0  0  0
    6.1414    2.7592   -1.9793 C   0  0  0  0  0  0  0  0  0  0  0  0
    6.2774    1.4243   -2.0075 C   0  0  0  0  0  0  0  0  0  0  0  0
    6.0892    0.7760   -3.1484 F   0  0  0  0  0  0  0  0  0  0  0  0
    2.8849   -1.8124    1.2688 H   0  0  0  0  0  0  0  0  0  0  0  0
    5.6588   -4.0939    0.4211 H   0  0  0  0  0  0  0  0  0  0  0  0
    5.1746   -6.4182    0.1044 H   0  0  0  0  0  0  0  0  0  0  0  0
    1.0950   -5.7047    0.9349 H   0  0  0  0  0  0  0  0  0  0  0  0
    1.5675   -3.3577    1.2674 H   0  0  0  0  0  0  0  0  0  0  0  0
    8.0982   -0.9286    2.2027 H   0  0  0  0  0  0  0  0  0  0  0  0
    6.5520   -0.6206    3.1484 H   0  0  0  0  0  0  0  0  0  0  0  0
    5.9615   -3.0408    2.9391 H   0  0  0  0  0  0  0  0  0  0  0  0
    7.5103   -3.3343    2.0037 H   0  0  0  0  0  0  0  0  0  0  0  0
    6.6220   -0.8590   -1.9851 H   0  0  0  0  0  0  0  0  0  0  0  0
    7.0712    0.9528    1.1749 H   0  0  0  0  0  0  0  0  0  0  0  0
    6.8109    3.3257    1.1987 H   0  0  0  0  0  0  0  0  0  0  0  0
    4.5428    4.7434    1.2302 H   0  0  0  0  0  0  0  0  0  0  0  0
    2.7424    5.1129    2.2222 H   0  0  0  0  0  0  0  0  0  0  0  0
   -1.0842    7.4781    2.0118 H   0  0  0  0  0  0  0  0  0  0  0  0
   -1.4712    7.3851    0.2812 H   0  0  0  0  0  0  0  0  0  0  0  0
   -2.3670    5.3806    2.4537 H   0  0  0  0  0  0  0  0  0  0  0  0
   -3.4232    6.6186    1.6862 H   0  0  0  0  0  0  0  0  0  0  0  0
   -3.0044    5.6279   -0.5576 H   0  0  0  0  0  0  0  0  0  0  0  0
   -4.6218    4.2809   -1.5278 H   0  0  0  0  0  0  0  0  0  0  0  0
   -3.8922    2.7480   -0.9362 H   0  0  0  0  0  0  0  0  0  0  0  0
   -6.7232    3.8130   -0.3058 H   0  0  0  0  0  0  0  0  0  0  0  0
   -6.2955    2.4580   -1.4064 H   0  0  0  0  0  0  0  0  0  0  0  0
   -7.3226    0.7313    1.6674 H   0  0  0  0  0  0  0  0  0  0  0  0
   -7.6515    0.9215   -0.0793 H   0  0  0  0  0  0  0  0  0  0  0  0
   -8.0982    2.2453    1.0636 H   0  0  0  0  0  0  0  0  0  0  0  0
   -5.5197    2.0088    2.7051 H   0  0  0  0  0  0  0  0  0  0  0  0
   -6.2648    3.5439    2.1417 H   0  0  0  0  0  0  0  0  0  0  0  0
   -3.4311    2.4974    1.4850 H   0  0  0  0  0  0  0  0  0  0  0  0
   -3.8661    3.8344    2.6050 H   0  0  0  0  0  0  0  0  0  0  0  0
   -1.4385    3.4410    0.9701 H   0  0  0  0  0  0  0  0  0  0  0  0
   -1.7933    3.4229   -0.7925 H   0  0  0  0  0  0  0  0  0  0  0  0
    0.4788    4.2591   -0.3055 H   0  0  0  0  0  0  0  0  0  0  0  0
   -0.5046    5.5298   -1.1154 H   0  0  0  0  0  0  0  0  0  0  0  0
    2.4523    6.5726   -2.6601 H   0  0  0  0  0  0  0  0  0  0  0  0
    4.7940    5.8703   -2.8277 H   0  0  0  0  0  0  0  0  0  0  0  0
    5.8793    3.2868   -2.9117 H   0  0  0  0  0  0  0  0  0  0  0  0
  1  2  2  0      
  2  3  1  0      
  2 16  1  0      
  3  4  1  0      
  3 14  1  0      
  3 15  1  0      
  4  5  1  0      
  4 13  2  0      
  5  6  1  0      
  5 47  1  0      
  6  7  1  0      
  6 12  2  0      
  7  8  2  0      
  7 48  1  0      
  8  9  1  0      
  8 49  1  0      
  9 10  1  0      
  9 11  2  0      
 11 12  1  0      
 11 50  1  0      
 12 51  1  0      
 14 15  1  0      
 14 52  1  0      
 14 53  1  0      
 15 54  1  0      
 15 55  1  0      
 16 17  1  0      
 16 56  1  0      
 17 18  1  0      
 17 45  2  0      
 18 19  2  0      
 18 57  1  0      
 19 20  1  0      
 19 58  1  0      
 20 21  1  0      
 20 44  2  0      
 21 22  1  0      
 22 23  2  0      
 43 22  1  0      
 23 24  1  0      
 23 59  1  0      
 24 25  1  0      
 24 41  2  0      
 25 26  1  0      
 25 60  1  0      
 26 27  1  0      
 26 40  2  0      
 27 28  1  0      
 27 39  1  0      
 28 29  1  0      
 28 61  1  0      
 28 62  1  0      
 29 30  1  0      
 29 63  1  0      
 29 64  1  0      
 30 31  1  0      
 30 38  1  0      
 30 65  1  0      
 31 32  1  0      
 31 37  1  0      
 32 33  1  0      
 32 66  1  0      
 32 67  1  0      
 33 34  1  0      
 33 68  1  0      
 33 69  1  0      
 34 35  1  0      
 34 36  1  0      
 35 70  1  0      
 35 71  1  0      
 35 72  1  0      
 36 37  1  0      
 36 73  1  0      
 36 74  1  0      
 37 75  1  0      
 37 76  1  0      
 38 39  1  0      
 38 77  1  0      
 38 78  1  0      
 39 79  1  0      
 39 80  1  0      
 41 42  1  0      
 43 42  2  0      
 42 81  1  0      
 43 82  1  0      
 44 45  1  0      
 44 83  1  0      
 45 46  1  0      
M  END
