
  Chem3D Core 15.010021516103D

 48 51  0  0  0  0  0  0  0  0999 V2000
    1.0452    3.1420    1.0601 F   0  0  0  0  0  0  0  0  0  0  0  0
   -3.6951    2.0094    0.3301 O   0  0  0  0  0  0  0  0  0  0  0  0
   -5.4559   -1.2261   -1.0161 O   0  0  0  0  0  0  0  0  0  0  0  0
   -5.9023    0.8216   -0.4163 O   0  0  0  0  0  0  0  0  0  0  0  0
   -1.5998   -1.1541   -0.4239 N   0  0  0  0  0  0  0  0  0  0  0  0
    2.4391    0.7983    0.4661 N   0  0  0  0  0  0  0  0  0  0  0  0
    4.8443    1.1746   -0.9523 N   0  0  0  0  0  0  0  0  0  0  0  0
   -0.9707   -0.1015   -0.0589 C   0  0  0  0  0  0  0  0  0  0  0  0
   -1.6379    1.0345    0.2223 C   0  0  0  0  0  0  0  0  0  0  0  0
   -3.0032    1.0467    0.0866 C   0  0  0  0  0  0  0  0  0  0  0  0
   -0.9064    2.1054    0.6189 C   0  0  0  0  0  0  0  0  0  0  0  0
    1.1584    0.9100    0.4095 C   0  0  0  0  0  0  0  0  0  0  0  0
   -3.6362   -0.0774   -0.3749 C   0  0  0  0  0  0  0  0  0  0  0  0
    0.4422    2.0212    0.7048 C   0  0  0  0  0  0  0  0  0  0  0  0
   -1.0616   -2.4605   -0.0732 C   0  0  0  0  0  0  0  0  0  0  0  0
    0.3743   -0.1127    0.0125 C   0  0  0  0  0  0  0  0  0  0  0  0
   -2.8565   -1.1454   -0.6185 C   0  0  0  0  0  0  0  0  0  0  0  0
   -0.5627   -2.6118    1.3450 C   0  0  0  0  0  0  0  0  0  0  0  0
   -1.8567   -3.2590    0.9349 C   0  0  0  0  0  0  0  0  0  0  0  0
   -4.9919   -0.1751   -0.6065 C   0  0  0  0  0  0  0  0  0  0  0  0
   -1.5319    3.4488    0.9848 C   0  0  0  0  0  0  0  0  0  0  0  0
    3.3790    1.8780    0.8901 C   0  0  0  0  0  0  0  0  0  0  0  0
    3.2064   -0.4127    0.0302 C   0  0  0  0  0  0  0  0  0  0  0  0
    4.1356    2.3209   -0.3722 C   0  0  0  0  0  0  0  0  0  0  0  0
    3.9869    0.0186   -1.2232 C   0  0  0  0  0  0  0  0  0  0  0  0
    5.1427    3.4399   -0.0706 C   0  0  0  0  0  0  0  0  0  0  0  0
   -5.5768    1.6705   -0.0996 H   0  0  0  0  0  0  0  0  0  0  0  0
    5.3012    1.4762   -1.8489 H   0  0  0  0  0  0  0  0  0  0  0  0
   -0.5913   -2.9083   -0.9485 H   0  0  0  0  0  0  0  0  0  0  0  0
    0.8316   -1.0565   -0.2959 H   0  0  0  0  0  0  0  0  0  0  0  0
   -3.2421   -2.1011   -1.0082 H   0  0  0  0  0  0  0  0  0  0  0  0
    0.3066   -3.2518    1.4886 H   0  0  0  0  0  0  0  0  0  0  0  0
   -0.6368   -1.7791    2.0426 H   0  0  0  0  0  0  0  0  0  0  0  0
   -2.7631   -2.8481    1.3763 H   0  0  0  0  0  0  0  0  0  0  0  0
   -1.8656   -4.3396    0.8007 H   0  0  0  0  0  0  0  0  0  0  0  0
   -0.8257    4.2410    1.3094 H   0  0  0  0  0  0  0  0  0  0  0  0
   -2.0502    3.8992    0.1078 H   0  0  0  0  0  0  0  0  0  0  0  0
   -2.2175    3.3439    1.8563 H   0  0  0  0  0  0  0  0  0  0  0  0
    2.9757    2.7281    1.4636 H   0  0  0  0  0  0  0  0  0  0  0  0
    4.1123    1.4488    1.6129 H   0  0  0  0  0  0  0  0  0  0  0  0
    2.6581   -1.3520   -0.1677 H   0  0  0  0  0  0  0  0  0  0  0  0
    3.9243   -0.7000    0.8341 H   0  0  0  0  0  0  0  0  0  0  0  0
    3.4009    2.7019   -1.1241 H   0  0  0  0  0  0  0  0  0  0  0  0
    4.6224   -0.8224   -1.5890 H   0  0  0  0  0  0  0  0  0  0  0  0
    3.2732    0.2715   -2.0426 H   0  0  0  0  0  0  0  0  0  0  0  0
    5.9023    3.1064    0.6727 H   0  0  0  0  0  0  0  0  0  0  0  0
    5.6835    3.7517   -0.9935 H   0  0  0  0  0  0  0  0  0  0  0  0
    4.6313    4.3396    0.3415 H   0  0  0  0  0  0  0  0  0  0  0  0
  1 14  1  0      
  2 10  2  0      
  3 20  2  0      
  4 20  1  0      
  4 27  1  0      
  5  8  1  0      
  5 15  1  0      
 17  5  1  0      
  6 12  1  0      
  6 22  1  0      
  6 23  1  0      
 24  7  1  0      
  7 25  1  0      
  7 28  1  0      
  9  8  1  0      
 16  8  2  0      
  9 10  1  0      
 11  9  2  0      
 10 13  1  0      
 14 11  1  0      
 11 21  1  0      
 12 14  2  0      
 16 12  1  0      
 13 17  2  0      
 13 20  1  0      
 15 18  1  0      
 15 19  1  0      
 15 29  1  0      
 16 30  1  0      
 17 31  1  0      
 18 19  1  0      
 18 32  1  0      
 18 33  1  0      
 19 34  1  0      
 19 35  1  0      
 21 36  1  0      
 21 37  1  0      
 21 38  1  0      
 22 24  1  0      
 22 39  1  0      
 22 40  1  0      
 25 23  1  0      
 23 41  1  0      
 23 42  1  0      
 24 26  1  0      
 24 43  1  0      
 25 44  1  0      
 25 45  1  0      
 26 46  1  0      
 26 47  1  0      
 26 48  1  0      
M  END
