
  Chem3D Core 15.003291616283D

  0  0  0     0  0              0 V3000
M  V30 BEGIN CTAB
M  V30 COUNTS 68 71 0 0 0
M  V30 BEGIN ATOM
M  V30 1 C 5.397808 -0.740419 0.998977 0
M  V30 2 C 5.514336 -1.930188 1.603584 0
M  V30 3 C 4.469881 -2.410499 2.288134 0
M  V30 4 C 3.326010 -1.712978 2.361779 0
M  V30 5 C 3.160227 -0.506273 1.775968 0
M  V30 6 C 4.242733 -0.059061 1.099342 0
M  V30 7 C 1.991033 0.188004 1.830202 0
M  V30 8 C 0.838612 -0.350307 2.287119 0
M  V30 9 C -0.333958 0.302656 2.270370 0
M  V30 10 C -0.429849 1.552617 1.794212 0
M  V30 11 C 0.710068 2.138664 1.400443 0
M  V30 12 C 1.874255 1.470352 1.418720 0
M  V30 13 C -1.764077 2.266357 1.728812 0
M  V30 14 N -2.660581 1.662927 0.737631 0
M  V30 15 C -2.221318 1.916505 -0.637437 0
M  V30 16 C -0.956283 1.180551 -1.005509 0
M  V30 17 S -4.285765 2.099723 0.981658 0
M  V30 18 O -5.043232 2.418306 -0.237406 0
M  V30 19 O -4.513193 2.839490 2.230532 0
M  V30 20 C -5.547203 0.876679 1.410291 0
M  V30 21 C -5.270235 -0.447750 1.334003 0
M  V30 22 C -6.188665 -1.351971 1.721702 0
M  V30 23 C -7.398528 -0.994898 2.170628 0
M  V30 24 C -7.672633 0.315225 2.206554 0
M  V30 25 C -6.781518 1.253314 1.835021 0
M  V30 26 S 6.729536 -0.088832 -0.001197 0
M  V30 27 C 8.375645 -0.787712 0.467852 0
M  V30 28 O 6.840827 -0.620517 -1.357965 0
M  V30 29 O 7.173544 1.266204 0.320357 0
M  V30 30 C -7.284885 2.686605 1.926928 0
M  V30 31 C -8.422389 -2.017044 2.604705 0
M  V30 32 C -3.977164 -1.009159 0.782410 0
M  V30 33 O 0.020113 1.736029 -1.511650 0
M  V30 34 C 0.908087 0.906724 -1.717125 0
M  V30 35 C 0.515798 -0.314340 -1.325221 0
M  V30 36 C -0.726963 -0.133596 -0.863218 0
M  V30 37 C 2.255174 1.266391 -2.301156 0
M  V30 38 F 2.125318 1.696047 -3.546632 0
M  V30 39 F 2.838380 2.228217 -1.602982 0
M  V30 40 F 3.074514 0.227107 -2.311022 0
M  V30 41 H 6.443340 -2.518387 1.552756 0
M  V30 42 H 4.557033 -3.387181 2.793712 0
M  V30 43 H 2.541966 -2.203439 2.956737 0
M  V30 44 H 4.223024 0.884718 0.536456 0
M  V30 45 H 0.764321 -1.384364 2.654285 0
M  V30 46 H -1.244539 -0.207830 2.624544 0
M  V30 47 H 0.686408 3.177668 1.030288 0
M  V30 48 H 2.730563 2.064236 1.067121 0
M  V30 49 H -2.174759 2.174646 2.763130 0
M  V30 50 H -1.633803 3.356626 1.537549 0
M  V30 51 H -2.965964 1.547736 -1.383267 0
M  V30 52 H -2.087959 3.009232 -0.817430 0
M  V30 53 H -5.960883 -2.428721 1.659964 0
M  V30 54 H -8.672674 0.617956 2.558436 0
M  V30 55 H 9.196106 -0.314525 -0.119004 0
M  V30 56 H 8.559968 -0.615758 1.552750 0
M  V30 57 H 8.397225 -1.885231 0.280269 0
M  V30 58 H -8.377602 2.749014 1.721735 0
M  V30 59 H -7.123733 3.087046 2.953712 0
M  V30 60 H -6.836824 3.387181 1.192323 0
M  V30 61 H -7.969326 -3.015513 2.796827 0
M  V30 62 H -8.926852 -1.702787 3.546632 0
M  V30 63 H -9.196106 -2.136328 1.812367 0
M  V30 64 H -3.752586 -0.570176 -0.214199 0
M  V30 65 H -3.143449 -0.840155 1.497813 0
M  V30 66 H -4.009360 -2.106919 0.606408 0
M  V30 67 H 1.079862 -1.252987 -1.367557 0
M  V30 68 H -1.394374 -0.897302 -0.451795 0
M  V30 END ATOM
M  V30 BEGIN BOND
M  V30 1 1 1 2
M  V30 2 2 1 6
M  V30 3 1 1 26
M  V30 4 2 2 3
M  V30 5 1 2 41
M  V30 6 1 3 4
M  V30 7 1 3 42
M  V30 8 2 4 5
M  V30 9 1 4 43
M  V30 10 1 5 6
M  V30 11 1 5 7
M  V30 12 1 6 44
M  V30 13 1 7 8
M  V30 14 2 7 12
M  V30 15 2 8 9
M  V30 16 1 8 45
M  V30 17 1 9 10
M  V30 18 1 9 46
M  V30 19 2 10 11
M  V30 20 1 10 13
M  V30 21 1 11 12
M  V30 22 1 11 47
M  V30 23 1 12 48
M  V30 24 1 13 14
M  V30 25 1 13 49
M  V30 26 1 13 50
M  V30 27 1 14 15
M  V30 28 1 14 17
M  V30 29 1 15 16
M  V30 30 1 15 51
M  V30 31 1 15 52
M  V30 32 1 16 33
M  V30 33 2 16 36
M  V30 34 2 17 18
M  V30 35 2 17 19
M  V30 36 1 17 20
M  V30 37 1 20 21
M  V30 38 2 20 25
M  V30 39 2 21 22
M  V30 40 1 21 32
M  V30 41 1 22 23
M  V30 42 1 22 53
M  V30 43 2 23 24
M  V30 44 1 23 31
M  V30 45 1 24 25
M  V30 46 1 24 54
M  V30 47 1 25 30
M  V30 48 1 26 27
M  V30 49 2 26 28
M  V30 50 2 26 29
M  V30 51 1 27 55
M  V30 52 1 27 56
M  V30 53 1 27 57
M  V30 54 1 30 58
M  V30 55 1 30 59
M  V30 56 1 30 60
M  V30 57 1 31 61
M  V30 58 1 31 62
M  V30 59 1 31 63
M  V30 60 1 32 64
M  V30 61 1 32 65
M  V30 62 1 32 66
M  V30 63 1 34 33
M  V30 64 2 35 34
M  V30 65 1 34 37
M  V30 66 1 36 35
M  V30 67 1 35 67
M  V30 68 1 36 68
M  V30 69 1 37 38
M  V30 70 1 37 39
M  V30 71 1 37 40
M  V30 END BOND
M  V30 END CTAB
M  END
