
  Chem3D Core 15.003291616413D

  0  0  0     0  0              0 V3000
M  V30 BEGIN CTAB
M  V30 COUNTS 51 55 0 0 0
M  V30 BEGIN ATOM
M  V30 1 O -0.521386 -6.505802 0.582732 0
M  V30 2 C -1.022417 -5.405215 0.427790 0
M  V30 3 C -0.274089 -4.258205 0.529759 0
M  V30 4 C -0.726221 -2.995985 0.313654 0
M  V30 5 C -2.137290 -2.619203 -0.136895 0
M  V30 6 C -3.139202 -2.509454 1.027437 0
M  V30 7 C -4.402067 -1.883794 0.406926 0
M  V30 8 C -3.945432 -1.229525 -0.910285 0
M  V30 9 C -2.409365 -1.273105 -0.846815 0
M  V30 10 C 0.147186 -1.981431 0.488317 0
M  V30 11 C 1.027728 -4.388552 0.861196 0
M  V30 12 C 1.857159 -3.346605 1.012698 0
M  V30 13 C 1.436046 -2.079445 0.859589 0
M  V30 14 C 2.270684 -1.028412 1.035972 0
M  V30 15 C 3.611803 -1.140698 1.110716 0
M  V30 16 N 4.140516 0.002182 1.232912 0
M  V30 17 C 3.261332 0.910473 1.269467 0
M  V30 18 N 3.398563 2.157033 1.393743 0
M  V30 19 C 2.353010 2.869510 1.430542 0
M  V30 20 C 1.073821 2.434562 1.364145 0
M  V30 21 C -0.006899 3.261840 1.428517 0
M  V30 22 C 0.101804 4.596679 1.622249 0
M  V30 23 C -0.954022 5.424454 1.687290 0
M  V30 24 C -2.197296 4.947366 1.556318 0
M  V30 25 C -2.352358 3.633045 1.359198 0
M  V30 26 C -1.281443 2.824634 1.298597 0
M  V30 27 C 0.979802 1.090008 1.241554 0
M  V30 28 C 2.067168 0.304856 1.160836 0
M  V30 29 O -2.348132 -5.419380 0.146099 0
M  V30 30 H -2.462138 -3.354726 -0.911541 0
M  V30 31 H -3.353843 -3.469662 1.544928 0
M  V30 32 H -2.715758 -1.815309 1.793012 0
M  V30 33 H -4.853621 -1.137447 1.101431 0
M  V30 34 H -5.169229 -2.667144 0.200958 0
M  V30 35 H -4.297872 -1.833607 -1.780552 0
M  V30 36 H -4.336960 -0.193818 -1.034308 0
M  V30 37 H -2.100725 -0.390830 -0.239217 0
M  V30 38 H -1.932171 -1.201541 -1.850811 0
M  V30 39 H -0.223222 -0.985881 0.252710 0
M  V30 40 H 1.494899 -5.370797 1.047563 0
M  V30 41 H 2.890329 -3.588022 1.309150 0
M  V30 42 H 4.274997 -2.010402 1.055015 0
M  V30 43 H 5.169229 0.178658 1.299706 0
M  V30 44 H 2.626532 3.930217 1.532384 0
M  V30 45 H 1.066756 5.108121 1.750124 0
M  V30 46 H -0.804994 6.505802 1.850811 0
M  V30 47 H -3.069900 5.618992 1.607251 0
M  V30 48 H -3.369460 3.220115 1.243083 0
M  V30 49 H -1.543956 1.771554 1.121180 0
M  V30 50 H 0.005171 0.602973 1.255110 0
M  V30 51 H -2.718056 -4.533711 0.233061 0
M  V30 END ATOM
M  V30 BEGIN BOND
M  V30 1 2 1 2
M  V30 2 1 2 3
M  V30 3 1 2 29
M  V30 4 1 3 4
M  V30 5 2 3 11
M  V30 6 1 4 5
M  V30 7 2 4 10
M  V30 8 1 5 6
M  V30 9 1 5 9
M  V30 10 1 5 30
M  V30 11 1 6 7
M  V30 12 1 6 31
M  V30 13 1 6 32
M  V30 14 1 7 8
M  V30 15 1 7 33
M  V30 16 1 7 34
M  V30 17 1 8 9
M  V30 18 1 8 35
M  V30 19 1 8 36
M  V30 20 1 9 37
M  V30 21 1 9 38
M  V30 22 1 10 13
M  V30 23 1 10 39
M  V30 24 1 12 11
M  V30 25 1 11 40
M  V30 26 2 13 12
M  V30 27 1 12 41
M  V30 28 1 13 14
M  V30 29 2 15 14
M  V30 30 1 14 28
M  V30 31 1 16 15
M  V30 32 1 15 42
M  V30 33 1 16 17
M  V30 34 1 16 43
M  V30 35 2 18 17
M  V30 36 1 28 17
M  V30 37 1 19 18
M  V30 38 2 20 19
M  V30 39 1 19 44
M  V30 40 1 20 21
M  V30 41 1 27 20
M  V30 42 1 21 22
M  V30 43 2 21 26
M  V30 44 2 22 23
M  V30 45 1 22 45
M  V30 46 1 23 24
M  V30 47 1 23 46
M  V30 48 2 24 25
M  V30 49 1 24 47
M  V30 50 1 25 26
M  V30 51 1 25 48
M  V30 52 1 26 49
M  V30 53 2 28 27
M  V30 54 1 27 50
M  V30 55 1 29 51
M  V30 END BOND
M  V30 END CTAB
M  END
