
  Chem3D Core 15.003181611323D

108115  0  0  0  0  0  0  0  0999 V2000
    3.7468   -6.0274    7.8595 O   0  0  0  0  0  0  0  0  0  0  0  0
    2.6789   -5.8420    7.3262 C   0  0  0  0  0  0  0  0  0  0  0  0
    1.7395   -6.8039    7.5581 N   0  0  0  0  0  0  0  0  0  0  0  0
    0.6675   -7.3068    6.9058 C   0  0  0  0  0  0  0  0  0  0  0  0
   -0.1444   -8.0782    7.6608 C   0  0  0  0  0  0  0  0  0  0  0  0
    0.1308   -8.2818    8.9423 F   0  0  0  0  0  0  0  0  0  0  0  0
   -1.2534   -8.6243    7.1388 C   0  0  0  0  0  0  0  0  0  0  0  0
   -1.5614   -8.4249    5.8499 C   0  0  0  0  0  0  0  0  0  0  0  0
   -0.7418   -7.6916    5.0839 C   0  0  0  0  0  0  0  0  0  0  0  0
    0.3678   -7.1382    5.5996 C   0  0  0  0  0  0  0  0  0  0  0  0
    1.1621   -6.4693    4.7782 F   0  0  0  0  0  0  0  0  0  0  0  0
    2.4255   -4.8040    6.4734 C   0  0  0  0  0  0  0  0  0  0  0  0
    1.1563   -4.3603    6.3648 C   0  0  0  0  0  0  0  0  0  0  0  0
    0.7642   -3.3446    5.5689 C   0  0  0  0  0  0  0  0  0  0  0  0
   -0.5423   -3.0023    5.4542 C   0  0  0  0  0  0  0  0  0  0  0  0
   -1.2201   -1.9368    4.9450 C   0  0  0  0  0  0  0  0  0  0  0  0
   -0.7377   -0.7273    4.5622 C   0  0  0  0  0  0  0  0  0  0  0  0
   -1.4137    0.0610    3.8334 N   0  0  0  0  0  0  0  0  0  0  0  0
   -1.0521    1.2206    3.4495 C   0  0  0  0  0  0  0  0  0  0  0  0
   -1.9025    1.7968    2.6926 N   0  0  0  0  0  0  0  0  0  0  0  0
   -2.0664    2.8866    2.0468 C   0  0  0  0  0  0  0  0  0  0  0  0
   -3.2327    2.9582    1.3821 C   0  0  0  0  0  0  0  0  0  0  0  0
   -3.6586    3.9867    0.6217 C   0  0  0  0  0  0  0  0  0  0  0  0
   -5.0069    3.7676   -0.0618 C   0  0  0  0  0  0  0  0  0  0  0  0
   -5.6722    2.3773   -0.0687 C   0  0  0  0  0  0  0  0  0  0  0  0
   -2.8725    5.0951    0.5117 C   0  0  0  0  0  0  0  0  0  0  0  0
   -3.0950    6.1839   -0.1465 N   0  0  0  0  0  0  0  0  0  0  0  0
   -4.2870    6.4809   -0.9897 C   0  0  0  0  0  0  0  0  0  0  0  0
   -3.8125    6.3032   -2.4421 C   0  0  0  0  0  0  0  0  0  0  0  0
   -2.6507    7.2760   -2.7652 C   0  0  0  0  0  0  0  0  0  0  0  0
   -2.2147    7.1585   -4.1599 N   0  0  0  0  0  0  0  0  0  0  0  0
   -1.3494    8.2568   -4.5703 C   0  0  0  0  0  0  0  0  0  0  0  0
   -1.0466    8.1860   -6.0775 C   0  0  0  0  0  0  0  0  0  0  0  0
   -0.4058    6.9258   -6.4172 N   0  0  0  0  0  0  0  0  0  0  0  0
    0.0723    6.8355   -8.0457 S   0  0  0  0  0  0  0  0  0  0  0  0
    0.6655    8.0328   -8.6360 O   0  0  0  0  0  0  0  0  0  0  0  0
    1.6758    5.9216   -7.9323 C   0  0  0  0  0  0  0  0  0  0  0  0
   -0.5803    5.8379   -8.8887 O   0  0  0  0  0  0  0  0  0  0  0  0
   -1.2539    5.8222   -5.9960 C   0  0  0  0  0  0  0  0  0  0  0  0
   -1.5553    5.9023   -4.4884 C   0  0  0  0  0  0  0  0  0  0  0  0
   -1.5304    7.1898   -1.7008 C   0  0  0  0  0  0  0  0  0  0  0  0
   -2.1126    7.3155   -0.2806 C   0  0  0  0  0  0  0  0  0  0  0  0
   -1.6972    4.9659    1.1755 C   0  0  0  0  0  0  0  0  0  0  0  0
   -1.2438    3.9462    1.9343 C   0  0  0  0  0  0  0  0  0  0  0  0
   -0.0176    3.9472    2.5544 O   0  0  0  0  0  0  0  0  0  0  0  0
    0.8813    5.0212    2.3977 C   0  0  0  0  0  0  0  0  0  0  0  0
    0.0623    1.6856    3.8319 N   0  0  0  0  0  0  0  0  0  0  0  0
    0.7885    1.0002    4.6015 C   0  0  0  0  0  0  0  0  0  0  0  0
    0.4298   -0.2242    5.0038 C   0  0  0  0  0  0  0  0  0  0  0  0
   -2.4533   -2.3042    4.9178 N   0  0  0  0  0  0  0  0  0  0  0  0
   -3.5428   -1.7595    4.5317 C   0  0  0  0  0  0  0  0  0  0  0  0
   -4.7317   -2.3754    4.6501 C   0  0  0  0  0  0  0  0  0  0  0  0
   -4.7985   -3.5959    5.2010 C   0  0  0  0  0  0  0  0  0  0  0  0
   -3.6559   -4.1509    5.6270 C   0  0  0  0  0  0  0  0  0  0  0  0
   -2.5222   -3.4541    5.4591 C   0  0  0  0  0  0  0  0  0  0  0  0
   -1.3927   -3.8656    5.8268 N   0  0  0  0  0  0  0  0  0  0  0  0
    1.7540   -2.8120    4.8324 C   0  0  0  0  0  0  0  0  0  0  0  0
    3.0280   -3.2141    4.9481 C   0  0  0  0  0  0  0  0  0  0  0  0
    3.4204   -4.1929    5.7872 C   0  0  0  0  0  0  0  0  0  0  0  0
    4.7189   -4.6428    5.8658 O   0  0  0  0  0  0  0  0  0  0  0  0
    5.6498   -4.2457    4.8851 C   0  0  0  0  0  0  0  0  0  0  0  0
    1.8516   -7.2699    8.4464 H   0  0  0  0  0  0  0  0  0  0  0  0
   -1.9158   -9.2376    7.7722 H   0  0  0  0  0  0  0  0  0  0  0  0
   -2.4708   -8.8758    5.4189 H   0  0  0  0  0  0  0  0  0  0  0  0
   -0.9779   -7.5511    4.0157 H   0  0  0  0  0  0  0  0  0  0  0  0
    0.3985   -4.8268    7.0141 H   0  0  0  0  0  0  0  0  0  0  0  0
   -2.7311    1.1569    2.5691 H   0  0  0  0  0  0  0  0  0  0  0  0
   -3.8955    2.0854    1.4698 H   0  0  0  0  0  0  0  0  0  0  0  0
   -5.7513    4.4407    0.4298 H   0  0  0  0  0  0  0  0  0  0  0  0
   -4.8736    3.9831   -1.1493 H   0  0  0  0  0  0  0  0  0  0  0  0
   -6.5993    2.3933   -0.6888 H   0  0  0  0  0  0  0  0  0  0  0  0
   -5.0097    1.5990   -0.5132 H   0  0  0  0  0  0  0  0  0  0  0  0
   -5.9983    2.0515    0.9455 H   0  0  0  0  0  0  0  0  0  0  0  0
   -5.2311    5.9758   -0.7467 H   0  0  0  0  0  0  0  0  0  0  0  0
   -4.5983    7.5413   -0.8432 H   0  0  0  0  0  0  0  0  0  0  0  0
   -3.4938    5.2440   -2.5661 H   0  0  0  0  0  0  0  0  0  0  0  0
   -4.6616    6.4787   -3.1448 H   0  0  0  0  0  0  0  0  0  0  0  0
   -3.1032    8.2967   -2.6583 H   0  0  0  0  0  0  0  0  0  0  0  0
   -1.8394    9.2376   -4.3577 H   0  0  0  0  0  0  0  0  0  0  0  0
   -0.3813    8.2419   -4.0171 H   0  0  0  0  0  0  0  0  0  0  0  0
   -1.9976    8.3159   -6.6493 H   0  0  0  0  0  0  0  0  0  0  0  0
   -0.3831    9.0473   -6.3364 H   0  0  0  0  0  0  0  0  0  0  0  0
    2.1283    5.7971   -8.9423 H   0  0  0  0  0  0  0  0  0  0  0  0
    1.5092    4.9163   -7.4837 H   0  0  0  0  0  0  0  0  0  0  0  0
    2.3839    6.4839   -7.2821 H   0  0  0  0  0  0  0  0  0  0  0  0
   -0.7532    4.8439   -6.1993 H   0  0  0  0  0  0  0  0  0  0  0  0
   -2.2195    5.8240   -6.5582 H   0  0  0  0  0  0  0  0  0  0  0  0
   -0.5978    5.7872   -3.9288 H   0  0  0  0  0  0  0  0  0  0  0  0
   -2.1975    5.0294   -4.2307 H   0  0  0  0  0  0  0  0  0  0  0  0
   -0.9953    6.2147   -1.7673 H   0  0  0  0  0  0  0  0  0  0  0  0
   -0.7767    7.9980   -1.8460 H   0  0  0  0  0  0  0  0  0  0  0  0
   -1.3331    7.4485    0.4917 H   0  0  0  0  0  0  0  0  0  0  0  0
   -2.6484    8.2894   -0.1935 H   0  0  0  0  0  0  0  0  0  0  0  0
   -0.9631    5.7672    1.1202 H   0  0  0  0  0  0  0  0  0  0  0  0
    1.7992    4.7755    2.9780 H   0  0  0  0  0  0  0  0  0  0  0  0
    1.1758    5.1338    1.3302 H   0  0  0  0  0  0  0  0  0  0  0  0
    0.4540    5.9565    2.8231 H   0  0  0  0  0  0  0  0  0  0  0  0
    1.7296    1.4609    4.9455 H   0  0  0  0  0  0  0  0  0  0  0  0
    1.0842   -0.7298    5.7270 H   0  0  0  0  0  0  0  0  0  0  0  0
   -3.5477   -0.7561    4.0938 H   0  0  0  0  0  0  0  0  0  0  0  0
   -5.6534   -1.8778    4.3043 H   0  0  0  0  0  0  0  0  0  0  0  0
   -5.7616   -4.1194    5.3135 H   0  0  0  0  0  0  0  0  0  0  0  0
   -3.6522   -5.1459    6.1012 H   0  0  0  0  0  0  0  0  0  0  0  0
    1.5454   -2.0836    4.0332 H   0  0  0  0  0  0  0  0  0  0  0  0
    3.7534   -2.7221    4.2804 H   0  0  0  0  0  0  0  0  0  0  0  0
    6.5993   -4.7936    5.0791 H   0  0  0  0  0  0  0  0  0  0  0  0
    5.2881   -4.5257    3.8705 H   0  0  0  0  0  0  0  0  0  0  0  0
    5.8638   -3.1569    4.9673 H   0  0  0  0  0  0  0  0  0  0  0  0
  1  2  2  0      
  2  3  1  0      
  2 12  1  0      
  3  4  1  0      
  3 62  1  0      
  4  5  1  0      
  4 10  2  0      
  5  6  1  0      
  5  7  2  0      
  7  8  1  0      
  7 63  1  0      
  8  9  2  0      
  8 64  1  0      
  9 10  1  0      
  9 65  1  0      
 10 11  1  0      
 12 13  1  0      
 12 59  2  0      
 13 14  2  0      
 13 66  1  0      
 14 15  1  0      
 14 57  1  0      
 16 15  2  0      
 15 56  1  0      
 16 17  1  0      
 16 50  1  0      
 17 18  1  0      
 49 17  2  0      
 18 19  2  0      
 19 20  1  0      
 19 47  1  0      
 20 21  1  0      
 20 67  1  0      
 21 22  1  0      
 21 44  2  0      
 22 23  2  0      
 22 68  1  0      
 23 24  1  0      
 23 26  1  0      
 24 25  1  0      
 24 69  1  0      
 24 70  1  0      
 25 71  1  0      
 25 72  1  0      
 25 73  1  0      
 26 27  1  0      
 26 43  2  0      
 27 28  1  0      
 27 42  1  0      
 28 29  1  0      
 28 74  1  0      
 28 75  1  0      
 29 30  1  0      
 29 76  1  0      
 29 77  1  0      
 30 31  1  0      
 30 41  1  0      
 30 78  1  0      
 31 32  1  0      
 31 40  1  0      
 32 33  1  0      
 32 79  1  0      
 32 80  1  0      
 33 34  1  0      
 33 81  1  0      
 33 82  1  0      
 34 35  1  0      
 34 39  1  0      
 35 36  2  0      
 35 37  1  0      
 35 38  2  0      
 37 83  1  0      
 37 84  1  0      
 37 85  1  0      
 39 40  1  0      
 39 86  1  0      
 39 87  1  0      
 40 88  1  0      
 40 89  1  0      
 41 42  1  0      
 41 90  1  0      
 41 91  1  0      
 42 92  1  0      
 42 93  1  0      
 43 44  1  0      
 43 94  1  0      
 44 45  1  0      
 45 46  1  0      
 46 95  1  0      
 46 96  1  0      
 46 97  1  0      
 48 47  2  0      
 48 49  1  0      
 48 98  1  0      
 49 99  1  0      
 51 50  1  0      
 55 50  1  0      
 52 51  2  0      
 51100  1  0      
 53 52  1  0      
 52101  1  0      
 54 53  2  0      
 53102  1  0      
 55 54  1  0      
 54103  1  0      
 56 55  2  0      
 57 58  2  0      
 57104  1  0      
 58 59  1  0      
 58105  1  0      
 59 60  1  0      
 60 61  1  0      
 61106  1  0      
 61107  1  0      
 61108  1  0      
M  END
