
  Chem3D Core 15.008171512513D

 53 56  0  0  0  0  0  0  0  0999 V2000
   -1.4861   -1.5968    0.3276 C   0  0  0  0  0  0  0  0  0  0  0  0
   -0.4807   -0.9578    0.9440 C   0  0  0  0  0  0  0  0  0  0  0  0
   -2.7025   -1.0298    0.2798 C   0  0  0  0  0  0  0  0  0  0  0  0
   -0.6510    0.2370    1.5217 C   0  0  0  0  0  0  0  0  0  0  0  0
   -2.8379    0.1790    0.8674 C   0  0  0  0  0  0  0  0  0  0  0  0
   -1.8493    0.8638    1.4943 C   0  0  0  0  0  0  0  0  0  0  0  0
   -2.0317    2.0138    2.0406 N   0  0  0  0  0  0  0  0  0  0  0  0
   -3.7758   -1.6235   -0.3252 C   0  0  0  0  0  0  0  0  0  0  0  0
   -1.0599   -2.7032   -0.1210 N   0  0  0  0  0  0  0  0  0  0  0  0
    0.1671   -2.7925    0.1827 C   0  0  0  0  0  0  0  0  0  0  0  0
    0.5040   -1.7453    0.8139 N   0  0  0  0  0  0  0  0  0  0  0  0
   -0.9118    2.6740    2.7655 C   0  0  0  0  0  0  0  0  0  0  0  0
   -1.2066    4.1081    3.2028 C   0  0  0  0  0  0  0  0  0  0  0  0
   -2.5345    4.2398    3.6355 O   0  0  0  0  0  0  0  0  0  0  0  0
   -3.3850    2.6334    2.0413 C   0  0  0  0  0  0  0  0  0  0  0  0
   -3.4175    4.0710    2.5587 C   0  0  0  0  0  0  0  0  0  0  0  0
    0.9285   -4.0253   -0.2123 C   0  0  0  0  0  0  0  0  0  0  0  0
   -5.0007   -1.0383   -0.3646 O   0  0  0  0  0  0  0  0  0  0  0  0
   -3.7353   -2.7049   -0.8724 O   0  0  0  0  0  0  0  0  0  0  0  0
    1.8665   -1.5102    1.3269 C   0  0  0  0  0  0  0  0  0  0  0  0
    3.9088   -1.2175   -1.8238 C   0  0  0  0  0  0  0  0  0  0  0  0
    4.8221   -2.1777   -1.5877 C   0  0  0  0  0  0  0  0  0  0  0  0
    2.9506   -0.9798   -0.8953 C   0  0  0  0  0  0  0  0  0  0  0  0
    4.8189   -2.8791   -0.4484 C   0  0  0  0  0  0  0  0  0  0  0  0
    2.9272   -1.7001    0.2518 C   0  0  0  0  0  0  0  0  0  0  0  0
    3.8711   -2.6354    0.4632 C   0  0  0  0  0  0  0  0  0  0  0  0
    1.9172    0.1099   -1.1181 C   0  0  0  0  0  0  0  0  0  0  0  0
    3.9447   -0.5017   -3.1624 C   0  0  0  0  0  0  0  0  0  0  0  0
    4.7485   -1.0709   -4.0477 F   0  0  0  0  0  0  0  0  0  0  0  0
    2.7473   -0.4365   -3.7245 F   0  0  0  0  0  0  0  0  0  0  0  0
    4.3746    0.7408   -3.0003 F   0  0  0  0  0  0  0  0  0  0  0  0
    0.2310    0.6634    2.0144 H   0  0  0  0  0  0  0  0  0  0  0  0
   -3.8459    0.6128    0.8232 H   0  0  0  0  0  0  0  0  0  0  0  0
    0.0036    2.7433    2.1297 H   0  0  0  0  0  0  0  0  0  0  0  0
   -0.6895    2.0785    3.6849 H   0  0  0  0  0  0  0  0  0  0  0  0
   -1.0141    4.8344    2.3796 H   0  0  0  0  0  0  0  0  0  0  0  0
   -0.5412    4.4031    4.0477 H   0  0  0  0  0  0  0  0  0  0  0  0
   -3.8137    2.6836    1.0114 H   0  0  0  0  0  0  0  0  0  0  0  0
   -4.0505    2.0220    2.6990 H   0  0  0  0  0  0  0  0  0  0  0  0
   -4.4415    4.3357    2.9123 H   0  0  0  0  0  0  0  0  0  0  0  0
   -3.1617    4.8006    1.7558 H   0  0  0  0  0  0  0  0  0  0  0  0
    1.4996   -4.4253    0.6554 H   0  0  0  0  0  0  0  0  0  0  0  0
    0.2499   -4.8344   -0.5650 H   0  0  0  0  0  0  0  0  0  0  0  0
    1.6353   -3.7975   -1.0413 H   0  0  0  0  0  0  0  0  0  0  0  0
   -5.6046   -1.6317   -0.8393 H   0  0  0  0  0  0  0  0  0  0  0  0
    2.0072   -0.4976    1.7630 H   0  0  0  0  0  0  0  0  0  0  0  0
    2.0206   -2.2039    2.1857 H   0  0  0  0  0  0  0  0  0  0  0  0
    5.6046   -2.4128   -2.3274 H   0  0  0  0  0  0  0  0  0  0  0  0
    5.5788   -3.6579   -0.2683 H   0  0  0  0  0  0  0  0  0  0  0  0
    3.8745   -3.2320    1.3903 H   0  0  0  0  0  0  0  0  0  0  0  0
    1.6193    0.6166   -0.1765 H   0  0  0  0  0  0  0  0  0  0  0  0
    2.2898    0.9492   -1.7419 H   0  0  0  0  0  0  0  0  0  0  0  0
    1.0066   -0.3105   -1.6021 H   0  0  0  0  0  0  0  0  0  0  0  0
  1  2  1  0      
  1  3  2  0      
  9  1  1  0      
  4  2  2  0      
 11  2  1  0      
  3  5  1  0      
  3  8  1  0      
  6  4  1  0      
  4 32  1  0      
  5  6  2  0      
  5 33  1  0      
  6  7  1  0      
  7 12  1  0      
  7 15  1  0      
  8 18  1  0      
  8 19  2  0      
 10  9  2  0      
 11 10  1  0      
 10 17  1  0      
 11 20  1  0      
 12 13  1  0      
 12 34  1  0      
 12 35  1  0      
 13 14  1  0      
 13 36  1  0      
 13 37  1  0      
 14 16  1  0      
 16 15  1  0      
 15 38  1  0      
 15 39  1  0      
 16 40  1  0      
 16 41  1  0      
 17 42  1  0      
 17 43  1  0      
 17 44  1  0      
 18 45  1  0      
 20 25  1  0      
 20 46  1  0      
 20 47  1  0      
 21 22  1  0      
 21 23  2  0      
 21 28  1  0      
 22 24  2  0      
 22 48  1  0      
 25 23  1  0      
 23 27  1  0      
 24 26  1  0      
 24 49  1  0      
 26 25  2  0      
 26 50  1  0      
 27 51  1  0      
 27 52  1  0      
 27 53  1  0      
 28 29  1  0      
 28 30  1  0      
 28 31  1  0      
M  END
