
  Chem3D Core 15.008141513093D

 80 83  0  0  0  0  0  0  0  0999 V2000
    2.1688   -3.0886   -1.8131 C   0  0  0  0  0  0  0  0  0  0  0  0
    1.9574   -1.9200   -2.4829 C   0  0  0  0  0  0  0  0  0  0  0  0
    2.8816   -0.9478   -2.5553 C   0  0  0  0  0  0  0  0  0  0  0  0
    2.6372    0.1974   -3.2143 C   0  0  0  0  0  0  0  0  0  0  0  0
    1.4771    0.4281   -3.8651 C   0  0  0  0  0  0  0  0  0  0  0  0
    0.5718   -0.5688   -3.7994 C   0  0  0  0  0  0  0  0  0  0  0  0
    0.8039   -1.7166   -3.1439 C   0  0  0  0  0  0  0  0  0  0  0  0
    1.5832   -4.1003   -2.1230 O   0  0  0  0  0  0  0  0  0  0  0  0
    2.8846   -3.1833   -0.6499 N   0  0  0  0  0  0  0  0  0  0  0  0
    1.2807    1.6323   -4.5019 O   0  0  0  0  0  0  0  0  0  0  0  0
   -0.0092    2.0612   -4.8334 C   0  0  0  0  0  0  0  0  0  0  0  0
   -0.8255    2.3534   -3.5730 C   0  0  0  0  0  0  0  0  0  0  0  0
    0.1284    3.3357   -5.6718 C   0  0  0  0  0  0  0  0  0  0  0  0
    4.5726   -2.3446    0.9225 C   0  0  0  0  0  0  0  0  0  0  0  0
    3.1869   -2.0946    0.2986 C   0  0  0  0  0  0  0  0  0  0  0  0
    2.0826   -2.0367    1.3736 C   0  0  0  0  0  0  0  0  0  0  0  0
    0.7928   -1.5371    0.7576 C   0  0  0  0  0  0  0  0  0  0  0  0
   -0.1490   -2.3851    0.3138 C   0  0  0  0  0  0  0  0  0  0  0  0
   -1.2711   -1.9293   -0.2649 C   0  0  0  0  0  0  0  0  0  0  0  0
   -1.5058   -0.6102   -0.4115 C   0  0  0  0  0  0  0  0  0  0  0  0
   -0.5621    0.2333    0.0483 C   0  0  0  0  0  0  0  0  0  0  0  0
    0.5661   -0.2206    0.6158 C   0  0  0  0  0  0  0  0  0  0  0  0
   -4.4426   -0.1703   -1.9660 C   0  0  0  0  0  0  0  0  0  0  0  0
   -5.5731   -0.5613   -2.5806 C   0  0  0  0  0  0  0  0  0  0  0  0
   -6.3898    0.4201   -3.0086 C   0  0  0  0  0  0  0  0  0  0  0  0
   -6.0595    1.7081   -2.8165 C   0  0  0  0  0  0  0  0  0  0  0  0
   -4.9083    2.0043   -2.1948 C   0  0  0  0  0  0  0  0  0  0  0  0
   -4.1576    1.0583   -1.8002 N   0  0  0  0  0  0  0  0  0  0  0  0
   -3.5407   -0.9163   -1.4855 N   0  0  0  0  0  0  0  0  0  0  0  0
   -2.6350   -0.1723   -1.0020 C   0  0  0  0  0  0  0  0  0  0  0  0
   -3.0388    1.0946   -1.2003 C   0  0  0  0  0  0  0  0  0  0  0  0
   -5.9168   -2.0215   -2.7941 C   0  0  0  0  0  0  0  0  0  0  0  0
   -6.1560   -2.7725   -1.4871 C   0  0  0  0  0  0  0  0  0  0  0  0
   -4.8887   -2.6634   -3.5287 O   0  0  0  0  0  0  0  0  0  0  0  0
    5.9760   -1.2994    2.6872 C   0  0  0  0  0  0  0  0  0  0  0  0
    6.2276   -0.0112    3.4593 C   0  0  0  0  0  0  0  0  0  0  0  0
    6.6217   -2.3043    2.8556 O   0  0  0  0  0  0  0  0  0  0  0  0
    4.9565   -1.2183    1.7790 N   0  0  0  0  0  0  0  0  0  0  0  0
    5.5859   -0.0424    4.7690 N   0  0  0  0  0  0  0  0  0  0  0  0
    6.0204    1.0875    5.5780 C   0  0  0  0  0  0  0  0  0  0  0  0
    4.1342   -0.0619    4.6629 C   0  0  0  0  0  0  0  0  0  0  0  0
    3.8909    1.3934   -3.2296 Cl  0  0  0  0  0  0  0  0  0  0  0  0
    3.8790   -1.0933   -2.1098 H   0  0  0  0  0  0  0  0  0  0  0  0
   -0.4086   -0.4790   -4.2927 H   0  0  0  0  0  0  0  0  0  0  0  0
   -0.0003   -2.4725   -3.1419 H   0  0  0  0  0  0  0  0  0  0  0  0
    2.9666   -4.1407   -0.3099 H   0  0  0  0  0  0  0  0  0  0  0  0
   -0.5082    1.3006   -5.4786 H   0  0  0  0  0  0  0  0  0  0  0  0
   -1.8490    2.7079   -3.8326 H   0  0  0  0  0  0  0  0  0  0  0  0
   -0.9456    1.4530   -2.9335 H   0  0  0  0  0  0  0  0  0  0  0  0
   -0.3400    3.1375   -2.9486 H   0  0  0  0  0  0  0  0  0  0  0  0
   -0.8684    3.7240   -5.9829 H   0  0  0  0  0  0  0  0  0  0  0  0
    0.7183    3.1464   -6.5981 H   0  0  0  0  0  0  0  0  0  0  0  0
    0.6455    4.1407   -5.1013 H   0  0  0  0  0  0  0  0  0  0  0  0
    4.5405   -3.2919    1.5093 H   0  0  0  0  0  0  0  0  0  0  0  0
    5.3347   -2.4535    0.1152 H   0  0  0  0  0  0  0  0  0  0  0  0
    3.2215   -1.0885   -0.1701 H   0  0  0  0  0  0  0  0  0  0  0  0
    1.9435   -3.0400    1.8377 H   0  0  0  0  0  0  0  0  0  0  0  0
    2.3720   -1.3493    2.2015 H   0  0  0  0  0  0  0  0  0  0  0  0
    0.0064   -3.4728    0.4082 H   0  0  0  0  0  0  0  0  0  0  0  0
   -1.9939   -2.6837   -0.6196 H   0  0  0  0  0  0  0  0  0  0  0  0
   -0.6705    1.3261   -0.0402 H   0  0  0  0  0  0  0  0  0  0  0  0
    1.3244    0.5023    0.9611 H   0  0  0  0  0  0  0  0  0  0  0  0
   -7.3348    0.1780   -3.5216 H   0  0  0  0  0  0  0  0  0  0  0  0
   -6.7239    2.5151   -3.1664 H   0  0  0  0  0  0  0  0  0  0  0  0
   -4.5802    3.0385   -2.0097 H   0  0  0  0  0  0  0  0  0  0  0  0
   -2.5600    2.0436   -0.9333 H   0  0  0  0  0  0  0  0  0  0  0  0
   -6.8340   -2.1141   -3.4228 H   0  0  0  0  0  0  0  0  0  0  0  0
   -6.4562   -3.8272   -1.6847 H   0  0  0  0  0  0  0  0  0  0  0  0
   -6.9723   -2.2935   -0.8992 H   0  0  0  0  0  0  0  0  0  0  0  0
   -5.2484   -2.8058   -0.8448 H   0  0  0  0  0  0  0  0  0  0  0  0
   -5.1068   -3.5902   -3.6418 H   0  0  0  0  0  0  0  0  0  0  0  0
    7.3348    0.0719    3.5762 H   0  0  0  0  0  0  0  0  0  0  0  0
    5.9014    0.8717    2.8621 H   0  0  0  0  0  0  0  0  0  0  0  0
    4.4827   -0.3227    1.6588 H   0  0  0  0  0  0  0  0  0  0  0  0
    5.5745    1.0422    6.5981 H   0  0  0  0  0  0  0  0  0  0  0  0
    7.1257    1.0770    5.7181 H   0  0  0  0  0  0  0  0  0  0  0  0
    5.7356    2.0603    5.1153 H   0  0  0  0  0  0  0  0  0  0  0  0
    3.6609   -0.0678    5.6714 H   0  0  0  0  0  0  0  0  0  0  0  0
    3.7806   -0.9881    4.1578 H   0  0  0  0  0  0  0  0  0  0  0  0
    3.7456    0.8187    4.1018 H   0  0  0  0  0  0  0  0  0  0  0  0
  1  2  1  0      
  1  8  2  0      
  1  9  1  0      
  2  3  1  0      
  2  7  2  0      
  3  4  2  0      
  3 43  1  0      
  4  5  1  0      
  4 42  1  0      
  5  6  2  0      
  5 10  1  0      
  6  7  1  0      
  6 44  1  0      
  7 45  1  0      
  9 15  1  0      
  9 46  1  0      
 10 11  1  0      
 11 12  1  0      
 11 13  1  0      
 11 47  1  0      
 12 48  1  0      
 12 49  1  0      
 12 50  1  0      
 13 51  1  0      
 13 52  1  0      
 13 53  1  0      
 14 15  1  0      
 14 38  1  0      
 14 54  1  0      
 14 55  1  0      
 15 16  1  0      
 15 56  1  0      
 16 17  1  0      
 16 57  1  0      
 16 58  1  0      
 17 18  1  0      
 17 22  2  0      
 18 19  2  0      
 18 59  1  0      
 19 20  1  0      
 19 60  1  0      
 20 21  2  0      
 20 30  1  0      
 21 22  1  0      
 21 61  1  0      
 22 62  1  0      
 23 24  1  0      
 23 28  1  0      
 29 23  2  0      
 24 25  2  0      
 24 32  1  0      
 25 26  1  0      
 25 63  1  0      
 26 27  2  0      
 26 64  1  0      
 27 28  1  0      
 27 65  1  0      
 31 28  1  0      
 30 29  1  0      
 31 30  2  0      
 31 66  1  0      
 32 33  1  0      
 32 34  1  0      
 32 67  1  0      
 33 68  1  0      
 33 69  1  0      
 33 70  1  0      
 34 71  1  0      
 35 36  1  0      
 35 37  2  0      
 35 38  1  0      
 36 39  1  0      
 36 72  1  0      
 36 73  1  0      
 38 74  1  0      
 39 40  1  0      
 39 41  1  0      
 40 75  1  0      
 40 76  1  0      
 40 77  1  0      
 41 78  1  0      
 41 79  1  0      
 41 80  1  0      
M  END
