
  Chem3D Core 15.010021516123D

 53 56  0  0  0  0  0  0  0  0999 V2000
   -0.4856    0.3768    0.3295 C   0  0  0  0  0  0  0  0  0  0  0  0
    2.0798    1.9156   -0.2148 C   0  0  0  0  0  0  0  0  0  0  0  0
   -1.5821   -0.2577    1.2272 C   0  0  0  0  0  0  0  0  0  0  0  0
    0.8978   -0.2523    0.5383 C   0  0  0  0  0  0  0  0  0  0  0  0
    1.9364    0.3930   -0.3967 C   0  0  0  0  0  0  0  0  0  0  0  0
   -1.5521   -1.7743    1.0646 C   0  0  0  0  0  0  0  0  0  0  0  0
   -0.4267    1.9045    0.3493 C   0  0  0  0  0  0  0  0  0  0  0  0
    0.6934    2.5179   -0.5037 C   0  0  0  0  0  0  0  0  0  0  0  0
    3.2092    2.2275   -1.2282 C   0  0  0  0  0  0  0  0  0  0  0  0
   -2.6580   -2.5332    0.9687 C   0  0  0  0  0  0  0  0  0  0  0  0
    0.8463   -1.7695    0.2833 C   0  0  0  0  0  0  0  0  0  0  0  0
   -2.9708    0.2589    0.7755 C   0  0  0  0  0  0  0  0  0  0  0  0
    3.3863   -0.1006   -0.3695 C   0  0  0  0  0  0  0  0  0  0  0  0
   -0.1986   -2.4402    1.1735 C   0  0  0  0  0  0  0  0  0  0  0  0
   -3.9310   -2.0666    1.0360 C   0  0  0  0  0  0  0  0  0  0  0  0
    4.1578    1.0166   -1.1039 C   0  0  0  0  0  0  0  0  0  0  0  0
   -0.8193    0.0706   -0.9310 F   0  0  0  0  0  0  0  0  0  0  0  0
   -4.8919   -2.7998    0.9385 O   0  0  0  0  0  0  0  0  0  0  0  0
   -4.1344   -0.5854    1.2941 C   0  0  0  0  0  0  0  0  0  0  0  0
   -0.3370    2.4068    1.6581 O   0  0  0  0  0  0  0  0  0  0  0  0
    3.8885    3.4003   -0.8610 O   0  0  0  0  0  0  0  0  0  0  0  0
    2.5673    2.3168    1.2007 C   0  0  0  0  0  0  0  0  0  0  0  0
   -1.4261   -0.0049    2.7450 C   0  0  0  0  0  0  0  0  0  0  0  0
    2.7662    2.4376   -2.6796 C   0  0  0  0  0  0  0  0  0  0  0  0
    1.2272   -0.1014    1.5907 H   0  0  0  0  0  0  0  0  0  0  0  0
    1.5788    0.1952   -1.4382 H   0  0  0  0  0  0  0  0  0  0  0  0
   -1.3869    2.3170   -0.0464 H   0  0  0  0  0  0  0  0  0  0  0  0
    0.7291    3.6247   -0.3772 H   0  0  0  0  0  0  0  0  0  0  0  0
    0.4162    2.3382   -1.5683 H   0  0  0  0  0  0  0  0  0  0  0  0
   -2.5378   -3.6247    0.8570 H   0  0  0  0  0  0  0  0  0  0  0  0
    0.6047   -1.9772   -0.7856 H   0  0  0  0  0  0  0  0  0  0  0  0
    1.8418   -2.2314    0.4843 H   0  0  0  0  0  0  0  0  0  0  0  0
   -3.1206    1.3196    1.0839 H   0  0  0  0  0  0  0  0  0  0  0  0
   -3.0504    0.2386   -0.3375 H   0  0  0  0  0  0  0  0  0  0  0  0
    3.5126   -1.0889   -0.8678 H   0  0  0  0  0  0  0  0  0  0  0  0
    3.7326   -0.2062    0.6843 H   0  0  0  0  0  0  0  0  0  0  0  0
   -0.2485   -3.5263    0.9271 H   0  0  0  0  0  0  0  0  0  0  0  0
    0.1287   -2.3766    2.2378 H   0  0  0  0  0  0  0  0  0  0  0  0
    4.4851    0.6651   -2.1094 H   0  0  0  0  0  0  0  0  0  0  0  0
    5.0847    1.2716   -0.5396 H   0  0  0  0  0  0  0  0  0  0  0  0
   -5.0847   -0.2511    0.8133 H   0  0  0  0  0  0  0  0  0  0  0  0
   -4.2634   -0.4464    2.3927 H   0  0  0  0  0  0  0  0  0  0  0  0
    0.0368    3.2899    1.6560 H   0  0  0  0  0  0  0  0  0  0  0  0
    4.5688    3.5924   -1.5106 H   0  0  0  0  0  0  0  0  0  0  0  0
    2.5074    3.4194    1.3434 H   0  0  0  0  0  0  0  0  0  0  0  0
    1.9908    1.8599    2.0284 H   0  0  0  0  0  0  0  0  0  0  0  0
    3.6220    2.0248    1.3954 H   0  0  0  0  0  0  0  0  0  0  0  0
   -0.3900   -0.1752    3.1080 H   0  0  0  0  0  0  0  0  0  0  0  0
   -1.7233    1.0214    3.0471 H   0  0  0  0  0  0  0  0  0  0  0  0
   -2.0805   -0.6812    3.3397 H   0  0  0  0  0  0  0  0  0  0  0  0
    2.2154    1.5648   -3.0934 H   0  0  0  0  0  0  0  0  0  0  0  0
    2.1222    3.3395   -2.7843 H   0  0  0  0  0  0  0  0  0  0  0  0
    3.6476    2.6068   -3.3397 H   0  0  0  0  0  0  0  0  0  0  0  0
  1  3  1  0      
  1  4  1  0      
  1  7  1  0      
  1 17  1  0      
  2  5  1  0      
  2  8  1  0      
  2  9  1  0      
  2 22  1  0      
  3  6  1  0      
  3 12  1  0      
  3 23  1  0      
  4  5  1  0      
  4 11  1  0      
  4 25  1  0      
  5 13  1  0      
  5 26  1  0      
  6 10  2  0      
  6 14  1  0      
  7  8  1  0      
  7 20  1  0      
  7 27  1  0      
  8 28  1  0      
  8 29  1  0      
  9 16  1  0      
  9 21  1  0      
  9 24  1  0      
 10 15  1  0      
 10 30  1  0      
 11 14  1  0      
 11 31  1  0      
 11 32  1  0      
 12 19  1  0      
 12 33  1  0      
 12 34  1  0      
 13 16  1  0      
 13 35  1  0      
 13 36  1  0      
 14 37  1  0      
 14 38  1  0      
 15 18  2  0      
 15 19  1  0      
 16 39  1  0      
 16 40  1  0      
 19 41  1  0      
 19 42  1  0      
 20 43  1  0      
 21 44  1  0      
 22 45  1  0      
 22 46  1  0      
 22 47  1  0      
 23 48  1  0      
 23 49  1  0      
 23 50  1  0      
 24 51  1  0      
 24 52  1  0      
 24 53  1  0      
M  END
