
  Chem3D Core 15.003291617063D

  0  0  0     0  0              0 V3000
M  V30 BEGIN CTAB
M  V30 COUNTS 28 30 0 0 0
M  V30 BEGIN ATOM
M  V30 1 C -4.183901 1.670329 -0.088664 0
M  V30 2 O -3.327458 0.554628 -0.008356 0
M  V30 3 C -1.967191 0.756830 -0.027659 0
M  V30 4 C -1.362413 1.965042 -0.106081 0
M  V30 5 C -0.026192 2.119145 -0.123776 0
M  V30 6 C 0.729900 1.019708 -0.061626 0
M  V30 7 C 0.163714 -0.191097 0.015763 0
M  V30 8 C -1.165743 -0.328644 0.032762 0
M  V30 9 N 1.084755 -1.063890 0.062585 0
M  V30 10 C 2.229067 -0.515137 0.021442 0
M  V30 11 C 2.051169 0.811122 -0.057886 0
M  V30 12 C 3.116331 1.616059 -0.114189 0
M  V30 13 C 4.309462 0.996859 -0.084979 0
M  V30 14 N 4.475551 -0.259148 -0.009845 0
M  V30 15 C 3.466941 -1.028517 0.044038 0
M  V30 16 C 3.762064 -2.503363 0.131216 0
M  V30 17 H -5.232104 1.296328 -0.063894 0
M  V30 18 H -4.033928 2.337868 0.789014 0
M  V30 19 H -4.030571 2.207739 -1.051049 0
M  V30 20 H -1.957845 2.890330 -0.159407 0
M  V30 21 H 0.433084 3.118420 -0.187933 0
M  V30 22 H -1.604713 -1.337817 0.096477 0
M  V30 23 H 0.915547 -2.093294 0.126211 0
M  V30 24 H 3.023782 2.710529 -0.180109 0
M  V30 25 H 5.232104 1.600933 -0.128236 0
M  V30 26 H 2.835699 -3.118420 0.165849 0
M  V30 27 H 4.351458 -2.835247 -0.753840 0
M  V30 28 H 4.348690 -2.728378 1.051049 0
M  V30 END ATOM
M  V30 BEGIN BOND
M  V30 1 1 1 2
M  V30 2 1 1 17
M  V30 3 1 1 18
M  V30 4 1 1 19
M  V30 5 1 2 3
M  V30 6 2 3 4
M  V30 7 1 8 3
M  V30 8 1 4 5
M  V30 9 1 4 20
M  V30 10 2 5 6
M  V30 11 1 5 21
M  V30 12 1 7 6
M  V30 13 1 11 6
M  V30 14 2 7 8
M  V30 15 1 9 7
M  V30 16 1 8 22
M  V30 17 1 10 9
M  V30 18 1 9 23
M  V30 19 1 11 10
M  V30 20 2 10 15
M  V30 21 2 12 11
M  V30 22 1 13 12
M  V30 23 1 12 24
M  V30 24 2 13 14
M  V30 25 1 13 25
M  V30 26 1 15 14
M  V30 27 1 15 16
M  V30 28 1 16 26
M  V30 29 1 16 27
M  V30 30 1 16 28
M  V30 END BOND
M  V30 END CTAB
M  END
