
  Chem3D Core 15.003291616453D

  0  0  0     0  0              0 V3000
M  V30 BEGIN CTAB
M  V30 COUNTS 83 84 0 0 0
M  V30 BEGIN ATOM
M  V30 1 O -5.235211 1.248865 -3.973282 0
M  V30 2 O -1.502637 -0.100570 -4.221064 0
M  V30 3 O -2.061568 4.638416 -2.157804 0
M  V30 4 O -3.362903 0.330357 0.709810 0
M  V30 5 O -1.337871 -2.670260 0.006589 0
M  V30 6 O 2.651626 0.497606 3.541864 0
M  V30 7 O 0.051750 -0.984090 -2.358055 0
M  V30 8 O 4.678808 0.558205 1.913234 0
M  V30 9 O 4.259190 -0.743898 4.562894 0
M  V30 10 N 0.657989 1.126244 -2.843811 0
M  V30 11 N 3.930904 1.311091 5.291201 0
M  V30 12 C -2.866717 1.464251 -3.369244 0
M  V30 13 C -1.628531 0.953870 -3.626227 0
M  V30 14 C -4.095895 0.560583 -3.502702 0
M  V30 15 C -0.561549 1.646964 -3.122038 0
M  V30 16 C -4.387443 -0.024257 -2.087873 0
M  V30 17 C -2.992320 2.708813 -2.874687 0
M  V30 18 C -1.935458 3.503312 -2.572382 0
M  V30 19 C -0.721660 2.904014 -2.672434 0
M  V30 20 C -3.110352 -0.909426 0.089956 0
M  V30 21 C -3.130686 -0.656564 -1.431906 0
M  V30 22 C -1.713962 -1.418023 0.527770 0
M  V30 23 C -1.325016 -1.303585 2.018455 0
M  V30 24 C 0.912001 -0.136656 -2.371366 0
M  V30 25 C 2.508576 -0.378294 2.440567 0
M  V30 26 C 1.038315 -0.280430 2.010530 0
M  V30 27 C 0.186685 -1.306987 2.217610 0
M  V30 28 C 3.544322 -0.057782 1.334966 0
M  V30 29 C 2.121515 -0.313829 -1.762766 0
M  V30 30 C -5.527558 -1.056459 -2.131944 0
M  V30 31 C 3.941346 -1.347938 0.639410 0
M  V30 32 C 2.404306 -1.531174 -1.249393 0
M  V30 33 C -5.131517 1.598766 -5.336986 0
M  V30 34 C -1.981119 -2.348467 2.936508 0
M  V30 35 C 3.363028 -1.956942 -0.410588 0
M  V30 36 C 0.586369 1.068661 1.490398 0
M  V30 37 C 3.626125 0.278753 4.466209 0
M  V30 38 C 3.113191 0.829861 -1.755752 0
M  V30 39 C -4.517428 0.336270 1.521017 0
M  V30 40 C -2.340220 -3.663334 -0.039031 0
M  V30 41 C 5.603859 1.047883 0.968155 0
M  V30 42 H 1.349953 1.840991 -2.683383 0
M  V30 43 H 4.667682 1.174771 5.966950 0
M  V30 44 H 3.423773 2.178587 5.197871 0
M  V30 45 H -3.926779 -0.301774 -4.186398 0
M  V30 46 H -4.724377 0.830494 -1.450407 0
M  V30 47 H -3.998983 3.116356 -2.682338 0
M  V30 48 H 0.150861 3.461939 -2.286535 0
M  V30 49 H -3.897342 -1.641097 0.371683 0
M  V30 50 H -2.287098 0.054131 -1.554006 0
M  V30 51 H -2.856658 -1.571527 -2.002867 0
M  V30 52 H -0.999773 -0.702035 0.045805 0
M  V30 53 H -1.676340 -0.321813 2.418451 0
M  V30 54 H 2.688272 -1.414883 2.808260 0
M  V30 55 H 0.600744 -2.247289 2.618302 0
M  V30 56 H 3.079604 0.684471 0.664354 0
M  V30 57 H -5.759906 -1.449750 -1.117097 0
M  V30 58 H -6.468661 -0.615046 -2.530131 0
M  V30 59 H -5.258540 -1.924037 -2.775917 0
M  V30 60 H 4.636184 -1.964197 1.242161 0
M  V30 61 H 1.783335 -2.379265 -1.595980 0
M  V30 62 H -6.047556 2.166073 -5.615438 0
M  V30 63 H -4.244529 2.246757 -5.509573 0
M  V30 64 H -5.074697 0.683473 -5.966950 0
M  V30 65 H -1.769443 -2.127390 4.008297 0
M  V30 66 H -3.088062 -2.355317 2.819860 0
M  V30 67 H -1.599090 -3.375299 2.741791 0
M  V30 68 H 3.595810 -3.040389 -0.455212 0
M  V30 69 H 0.968063 1.244728 0.461819 0
M  V30 70 H -0.513989 1.192528 1.427326 0
M  V30 71 H 0.953375 1.888382 2.146968 0
M  V30 72 H 3.301656 1.165842 -2.801110 0
M  V30 73 H 2.749950 1.713870 -1.185986 0
M  V30 74 H 4.115006 0.523121 -1.387905 0
M  V30 75 H -4.625537 1.355526 1.954491 0
M  V30 76 H -5.420528 0.111956 0.911483 0
M  V30 77 H -4.408841 -0.393128 2.353391 0
M  V30 78 H -1.840264 -4.638416 -0.234252 0
M  V30 79 H -2.894592 -3.741386 0.916986 0
M  V30 80 H -3.045082 -3.478805 -0.876993 0
M  V30 81 H 6.468661 1.470890 1.526487 0
M  V30 82 H 5.973740 0.228874 0.314118 0
M  V30 83 H 5.143168 1.862727 0.367330 0
M  V30 END ATOM
M  V30 BEGIN BOND
M  V30 1 1 14 1
M  V30 2 1 1 33
M  V30 3 2 2 13
M  V30 4 2 3 18
M  V30 5 1 20 4
M  V30 6 1 4 39
M  V30 7 1 22 5
M  V30 8 1 5 40
M  V30 9 1 25 6
M  V30 10 1 6 37
M  V30 11 2 7 24
M  V30 12 1 28 8
M  V30 13 1 8 41
M  V30 14 2 9 37
M  V30 15 1 10 15
M  V30 16 1 10 24
M  V30 17 1 10 42
M  V30 18 1 11 37
M  V30 19 1 11 43
M  V30 20 1 11 44
M  V30 21 1 12 13
M  V30 22 1 12 14
M  V30 23 2 12 17
M  V30 24 1 13 15
M  V30 25 1 14 16
M  V30 26 1 14 45
M  V30 27 2 15 19
M  V30 28 1 16 21
M  V30 29 1 16 30
M  V30 30 1 16 46
M  V30 31 1 17 18
M  V30 32 1 17 47
M  V30 33 1 18 19
M  V30 34 1 19 48
M  V30 35 1 20 21
M  V30 36 1 20 22
M  V30 37 1 20 49
M  V30 38 1 21 50
M  V30 39 1 21 51
M  V30 40 1 22 23
M  V30 41 1 22 52
M  V30 42 1 23 27
M  V30 43 1 23 34
M  V30 44 1 23 53
M  V30 45 1 24 29
M  V30 46 1 25 26
M  V30 47 1 25 28
M  V30 48 1 25 54
M  V30 49 2 26 27
M  V30 50 1 26 36
M  V30 51 1 27 55
M  V30 52 1 28 31
M  V30 53 1 28 56
M  V30 54 2 29 32
M  V30 55 1 29 38
M  V30 56 1 30 57
M  V30 57 1 30 58
M  V30 58 1 30 59
M  V30 59 2 31 35
M  V30 60 1 31 60
M  V30 61 1 32 35
M  V30 62 1 32 61
M  V30 63 1 33 62
M  V30 64 1 33 63
M  V30 65 1 33 64
M  V30 66 1 34 65
M  V30 67 1 34 66
M  V30 68 1 34 67
M  V30 69 1 35 68
M  V30 70 1 36 69
M  V30 71 1 36 70
M  V30 72 1 36 71
M  V30 73 1 38 72
M  V30 74 1 38 73
M  V30 75 1 38 74
M  V30 76 1 39 75
M  V30 77 1 39 76
M  V30 78 1 39 77
M  V30 79 1 40 78
M  V30 80 1 40 79
M  V30 81 1 40 80
M  V30 82 1 41 81
M  V30 83 1 41 82
M  V30 84 1 41 83
M  V30 END BOND
M  V30 END CTAB
M  END
