
  Chem3D Core 15.004121612403D

  0  0  0     0  0              0 V3000
M  V30 BEGIN CTAB
M  V30 COUNTS 50 52 0 0 0
M  V30 BEGIN ATOM
M  V30 1 S 0.687850 -0.730310 -0.771171 0
M  V30 2 O 1.615299 0.138711 -1.447899 0
M  V30 3 O 1.463166 -1.769262 -0.086800 0
M  V30 4 O -2.436831 -2.575564 -2.109144 0
M  V30 5 O -0.757934 2.542246 3.953033 0
M  V30 6 O 4.252093 0.724226 -1.494383 0 CHG=-1
M  V30 7 N -0.815827 -1.109496 -1.471796 0
M  V30 8 N 3.303847 0.841457 -2.402910 0 CHG=1
M  V30 9 C -1.643281 -0.102511 -1.860964 0
M  V30 10 C 0.294362 0.297214 0.656801 0
M  V30 11 C -1.521497 0.576634 -3.029541 0
M  V30 12 C -2.613096 0.235090 -0.988763 0
M  V30 13 C -1.353081 -2.387339 -1.605151 0
M  V30 14 C 0.126990 -0.246874 1.873372 0
M  V30 15 C 0.090153 1.619015 0.528814 0
M  V30 16 C -2.375098 1.594047 -3.262938 0
M  V30 17 C -0.524098 0.245884 -3.879998 0
M  V30 18 C -3.463904 1.237441 -1.246480 0
M  V30 19 C -3.340039 1.921754 -2.390511 0
M  V30 20 C -0.208575 0.517876 2.922135 0
M  V30 21 C -0.249675 2.371004 1.588881 0
M  V30 22 C -0.394182 1.848145 2.823694 0
M  V30 23 C -0.526518 -3.556802 -1.093468 0
M  V30 24 C 0.128746 1.124654 -4.683234 0
M  V30 25 C 1.414276 1.117217 -4.263494 0
M  V30 26 C 1.854834 2.206073 -3.602339 0
M  V30 27 C 2.161652 -0.003542 -4.226882 0
M  V30 28 C 2.796935 2.022940 -2.664324 0
M  V30 29 C 3.120879 -0.104107 -3.294440 0
M  V30 30 C -1.186607 3.876954 3.819447 0
M  V30 31 H -2.714987 -0.306229 -0.032549 0
M  V30 32 H 0.252937 -1.329795 2.037590 0
M  V30 33 H 0.182608 2.105011 -0.457837 0
M  V30 34 H -2.342270 2.183130 -4.193129 0
M  V30 35 H -0.015187 -0.703289 -3.642872 0
M  V30 36 H -4.252093 1.502389 -0.522888 0
M  V30 37 H -4.034904 2.748443 -2.613928 0
M  V30 38 H -0.340856 0.035232 3.906140 0
M  V30 39 H -0.411665 3.445720 1.408735 0
M  V30 40 H -1.042959 -4.518934 -1.311888 0
M  V30 41 H 0.462436 -3.611041 -1.600799 0
M  V30 42 H -0.417912 -3.509886 0.013478 0
M  V30 43 H -0.340852 2.122937 -4.741313 0
M  V30 44 H 1.351906 3.186586 -3.647523 0
M  V30 45 H 1.912867 -0.894784 -4.827632 0
M  V30 46 H 3.081739 2.861065 -2.005829 0
M  V30 47 H 3.642112 -1.065417 -3.146933 0
M  V30 48 H -1.492147 4.236465 4.827632 0
M  V30 49 H -0.350730 4.518934 3.462288 0
M  V30 50 H -2.069254 3.931182 3.143986 0
M  V30 END ATOM
M  V30 BEGIN BOND
M  V30 1 2 1 2
M  V30 2 2 1 3
M  V30 3 1 1 7
M  V30 4 1 1 10
M  V30 5 2 4 13
M  V30 6 1 5 22
M  V30 7 1 5 30
M  V30 8 1 6 8
M  V30 9 1 7 9
M  V30 10 1 7 13
M  V30 11 2 8 28
M  V30 12 1 8 29
M  V30 13 1 9 11
M  V30 14 2 9 12
M  V30 15 1 10 14
M  V30 16 2 10 15
M  V30 17 2 11 16
M  V30 18 1 11 17
M  V30 19 1 18 12
M  V30 20 1 12 31
M  V30 21 1 13 23
M  V30 22 2 14 20
M  V30 23 1 14 32
M  V30 24 1 21 15
M  V30 25 1 15 33
M  V30 26 1 16 19
M  V30 27 1 16 34
M  V30 28 2 17 24
M  V30 29 1 17 35
M  V30 30 2 19 18
M  V30 31 1 18 36
M  V30 32 1 19 37
M  V30 33 1 20 22
M  V30 34 1 20 38
M  V30 35 2 22 21
M  V30 36 1 21 39
M  V30 37 1 23 40
M  V30 38 1 23 41
M  V30 39 1 23 42
M  V30 40 1 24 25
M  V30 41 1 24 43
M  V30 42 2 26 25
M  V30 43 1 25 27
M  V30 44 1 28 26
M  V30 45 1 26 44
M  V30 46 2 27 29
M  V30 47 1 27 45
M  V30 48 1 28 46
M  V30 49 1 29 47
M  V30 50 1 30 48
M  V30 51 1 30 49
M  V30 52 1 30 50
M  V30 END BOND
M  V30 END CTAB
M  END
