
  Chem3D Core 15.008141513383D

 73 78  0  0  0  0  0  0  0  0999 V2000
    1.0335    0.6919    5.3481 O   0  0  0  0  0  0  0  0  0  0  0  0
    0.7934   -0.4705    4.6847 C   0  0  0  0  0  0  0  0  0  0  0  0
    1.7884   -1.1663    4.1092 C   0  0  0  0  0  0  0  0  0  0  0  0
    1.5492   -2.3111    3.4523 C   0  0  0  0  0  0  0  0  0  0  0  0
    0.2995   -2.7932    3.3389 C   0  0  0  0  0  0  0  0  0  0  0  0
    0.0254   -4.0722    2.5830 C   0  0  0  0  0  0  0  0  0  0  0  0
   -0.2998   -3.8682    1.0910 C   0  0  0  0  0  0  0  0  0  0  0  0
   -0.5303   -4.8943    0.6995 H   0  0  0  0  0  0  0  0  0  0  0  0
    0.8103   -3.3573    0.2808 N   0  0  0  0  0  0  0  0  0  0  0  0
    0.9415   -1.9017    0.1266 C   0  0  0  0  0  0  0  0  0  0  0  0
    1.7720   -1.6033    0.8164 H   0  0  0  0  0  0  0  0  0  0  0  0
   -0.3155   -1.1296    0.5869 C   0  0  0  0  0  0  0  0  0  0  0  0
   -1.5467   -1.8798    0.4027 N   0  0  0  0  0  0  0  0  0  0  0  0
   -2.7385   -1.1214    0.0129 C   0  0  0  0  0  0  0  0  0  0  0  0
   -2.4328    0.0151   -0.9520 C   0  0  0  0  0  0  0  0  0  0  0  0
   -2.6446    1.2769   -0.5326 C   0  0  0  0  0  0  0  0  0  0  0  0
   -2.3734    2.3278   -1.3167 C   0  0  0  0  0  0  0  0  0  0  0  0
   -1.8705    2.1247   -2.5408 C   0  0  0  0  0  0  0  0  0  0  0  0
   -1.6528    0.8742   -2.9848 C   0  0  0  0  0  0  0  0  0  0  0  0
   -1.1445    0.6876   -4.2173 C   0  0  0  0  0  0  0  0  0  0  0  0
   -0.9177   -0.5472   -4.6865 C   0  0  0  0  0  0  0  0  0  0  0  0
   -1.2042   -1.6040   -3.9156 C   0  0  0  0  0  0  0  0  0  0  0  0
   -1.7062   -1.4187   -2.6854 C   0  0  0  0  0  0  0  0  0  0  0  0
   -1.9389   -0.1848   -2.1956 C   0  0  0  0  0  0  0  0  0  0  0  0
   -1.6359   -3.1794    0.8189 C   0  0  0  0  0  0  0  0  0  0  0  0
   -2.6922   -3.7501    0.9551 O   0  0  0  0  0  0  0  0  0  0  0  0
    1.4133   -1.4870   -1.2059 N   0  0  0  0  0  0  0  0  0  0  0  0
    1.7967   -2.5756   -2.0979 C   0  0  0  0  0  0  0  0  0  0  0  0
    2.6313   -3.5899   -1.3086 C   0  0  0  0  0  0  0  0  0  0  0  0
    1.7257   -4.2207   -0.2737 C   0  0  0  0  0  0  0  0  0  0  0  0
    1.7873   -5.3939    0.0044 O   0  0  0  0  0  0  0  0  0  0  0  0
    1.6085   -0.1659   -1.5609 C   0  0  0  0  0  0  0  0  0  0  0  0
    1.7988    0.1501   -2.7078 O   0  0  0  0  0  0  0  0  0  0  0  0
    1.6374    0.7778   -0.5671 N   0  0  0  0  0  0  0  0  0  0  0  0
    1.7836    2.2122   -0.8111 C   0  0  0  0  0  0  0  0  0  0  0  0
    1.1257    2.9399    0.3391 C   0  0  0  0  0  0  0  0  0  0  0  0
    0.2598    3.9455    0.1187 C   0  0  0  0  0  0  0  0  0  0  0  0
   -0.3442    4.5747    1.1386 C   0  0  0  0  0  0  0  0  0  0  0  0
   -0.0852    4.2058    2.4018 C   0  0  0  0  0  0  0  0  0  0  0  0
    0.7811    3.2092    2.6362 C   0  0  0  0  0  0  0  0  0  0  0  0
    1.3800    2.5827    1.6116 C   0  0  0  0  0  0  0  0  0  0  0  0
   -0.6976   -2.1070    3.9245 C   0  0  0  0  0  0  0  0  0  0  0  0
   -0.4521   -0.9640    4.5831 C   0  0  0  0  0  0  0  0  0  0  0  0
    0.1977    1.0424    5.6962 H   0  0  0  0  0  0  0  0  0  0  0  0
    2.8212   -0.7850    4.1768 H   0  0  0  0  0  0  0  0  0  0  0  0
    2.3913   -2.8521    2.9896 H   0  0  0  0  0  0  0  0  0  0  0  0
    0.9040   -4.7524    2.6810 H   0  0  0  0  0  0  0  0  0  0  0  0
   -0.8170   -4.6117    3.0776 H   0  0  0  0  0  0  0  0  0  0  0  0
   -0.3728   -0.1251    0.1302 H   0  0  0  0  0  0  0  0  0  0  0  0
   -0.2356   -0.8898    1.6701 H   0  0  0  0  0  0  0  0  0  0  0  0
   -3.4953   -1.7745   -0.4803 H   0  0  0  0  0  0  0  0  0  0  0  0
   -3.2236   -0.7517    0.9457 H   0  0  0  0  0  0  0  0  0  0  0  0
   -3.0396    1.4706    0.4785 H   0  0  0  0  0  0  0  0  0  0  0  0
   -2.5524    3.3531   -0.9520 H   0  0  0  0  0  0  0  0  0  0  0  0
   -1.6420    3.0041   -3.1667 H   0  0  0  0  0  0  0  0  0  0  0  0
   -0.9012    1.5446   -4.8685 H   0  0  0  0  0  0  0  0  0  0  0  0
   -0.4993   -0.6933   -5.6962 H   0  0  0  0  0  0  0  0  0  0  0  0
   -1.0213   -2.6240   -4.2936 H   0  0  0  0  0  0  0  0  0  0  0  0
   -1.9149   -2.3271   -2.0988 H   0  0  0  0  0  0  0  0  0  0  0  0
    0.8852   -3.0511   -2.5277 H   0  0  0  0  0  0  0  0  0  0  0  0
    2.4178   -2.2184   -2.9516 H   0  0  0  0  0  0  0  0  0  0  0  0
    3.0276   -4.3792   -1.9899 H   0  0  0  0  0  0  0  0  0  0  0  0
    3.4953   -3.1013   -0.8014 H   0  0  0  0  0  0  0  0  0  0  0  0
    1.5336    0.4824    0.4036 H   0  0  0  0  0  0  0  0  0  0  0  0
    2.8651    2.4758   -0.8512 H   0  0  0  0  0  0  0  0  0  0  0  0
    1.3087    2.4983   -1.7769 H   0  0  0  0  0  0  0  0  0  0  0  0
    0.0313    4.2624   -0.9122 H   0  0  0  0  0  0  0  0  0  0  0  0
   -1.0551    5.3939    0.9385 H   0  0  0  0  0  0  0  0  0  0  0  0
   -0.5798    4.7203    3.2424 H   0  0  0  0  0  0  0  0  0  0  0  0
    0.9997    2.9068    3.6733 H   0  0  0  0  0  0  0  0  0  0  0  0
    2.0880    1.7661    1.8305 H   0  0  0  0  0  0  0  0  0  0  0  0
   -1.7343   -2.4757    3.8530 H   0  0  0  0  0  0  0  0  0  0  0  0
   -1.2894   -0.4143    5.0448 H   0  0  0  0  0  0  0  0  0  0  0  0
  1  2  1  0      
  1 44  1  0      
  2  3  1  0      
  2 43  2  0      
  3  4  2  0      
  3 45  1  0      
  4  5  1  0      
  4 46  1  0      
  5  6  1  0      
  5 42  2  0      
  6  7  1  0      
  6 47  1  0      
  6 48  1  0      
  7  8  1  0      
  7  9  1  0      
  7 25  1  0      
  9 10  1  0      
  9 30  1  0      
 10 11  1  0      
 10 12  1  0      
 10 27  1  0      
 12 13  1  0      
 12 49  1  0      
 12 50  1  0      
 13 14  1  0      
 13 25  1  0      
 14 15  1  0      
 14 51  1  0      
 14 52  1  0      
 16 15  2  0      
 15 24  1  0      
 17 16  1  0      
 16 53  1  0      
 17 18  2  0      
 17 54  1  0      
 19 18  1  0      
 18 55  1  0      
 20 19  2  0      
 24 19  1  0      
 21 20  1  0      
 20 56  1  0      
 22 21  2  0      
 21 57  1  0      
 23 22  1  0      
 22 58  1  0      
 24 23  2  0      
 23 59  1  0      
 25 26  2  0      
 27 28  1  0      
 27 32  1  0      
 28 29  1  0      
 28 60  1  0      
 28 61  1  0      
 29 30  1  0      
 29 62  1  0      
 29 63  1  0      
 30 31  2  0      
 32 33  2  0      
 32 34  1  0      
 34 35  1  0      
 34 64  1  0      
 35 36  1  0      
 35 65  1  0      
 35 66  1  0      
 36 37  1  0      
 36 41  2  0      
 37 38  2  0      
 37 67  1  0      
 38 39  1  0      
 38 68  1  0      
 39 40  2  0      
 39 69  1  0      
 40 41  1  0      
 40 70  1  0      
 41 71  1  0      
 42 43  1  0      
 42 72  1  0      
 43 73  1  0      
M  END
