
  Chem3D Core 15.003181611403D

 71 74  0  0  0  0  0  0  0  0999 V2000
    3.0843   -0.2241   -1.7245 C   0  0  0  0  0  0  0  0  0  0  0  0
    4.1184    0.3436   -0.6978 C   0  0  0  0  0  0  0  0  0  0  0  0
    3.3024    0.3849    0.6230 C   0  0  0  0  0  0  0  0  0  0  0  0
    2.1669   -0.5062    0.4058 N   0  0  0  0  0  0  0  0  0  0  0  0
    1.7386   -0.3406   -0.9736 C   0  0  0  0  0  0  0  0  0  0  0  0
    3.4852   -1.5517   -2.3748 C   0  0  0  0  0  0  0  0  0  0  0  0
    3.5577   -2.7116   -1.6893 C   0  0  0  0  0  0  0  0  0  0  0  0
    3.9013   -3.8600   -2.3040 C   0  0  0  0  0  0  0  0  0  0  0  0
    4.1762   -3.8713   -3.6170 C   0  0  0  0  0  0  0  0  0  0  0  0
    4.1039   -2.7280   -4.3121 C   0  0  0  0  0  0  0  0  0  0  0  0
    3.7588   -1.5893   -3.6935 C   0  0  0  0  0  0  0  0  0  0  0  0
    4.7543    1.6591   -1.1780 C   0  0  0  0  0  0  0  0  0  0  0  0
    5.2050    1.7295   -2.4478 C   0  0  0  0  0  0  0  0  0  0  0  0
    5.7717    2.8316   -2.9612 C   0  0  0  0  0  0  0  0  0  0  0  0
    5.9219    3.9165   -2.1901 C   0  0  0  0  0  0  0  0  0  0  0  0
    5.5178    3.8636   -0.9131 C   0  0  0  0  0  0  0  0  0  0  0  0
    4.9500    2.7533   -0.4113 C   0  0  0  0  0  0  0  0  0  0  0  0
    0.8372    0.8828   -1.0653 C   0  0  0  0  0  0  0  0  0  0  0  0
   -0.4775    0.7772   -0.7177 N   0  0  0  0  0  0  0  0  0  0  0  0
    1.2442    1.9496   -1.4481 O   0  0  0  0  0  0  0  0  0  0  0  0
   -1.4050   -0.0754   -0.2159 C   0  0  0  0  0  0  0  0  0  0  0  0
    3.9870   -5.3461   -1.4204 Cl  0  0  0  0  0  0  0  0  0  0  0  0
    6.6543    5.3461   -2.8234 Cl  0  0  0  0  0  0  0  0  0  0  0  0
    5.2790   -0.5715   -0.5773 C   0  0  0  0  0  0  0  0  0  0  0  0
    6.1868   -1.2908   -0.5378 N   0  0  0  0  0  0  0  0  0  0  0  0
    4.0558   -0.0150    1.9053 C   0  0  0  0  0  0  0  0  0  0  0  0
    3.3501    0.1977    3.2698 C   0  0  0  0  0  0  0  0  0  0  0  0
    2.0417   -0.6095    3.3922 C   0  0  0  0  0  0  0  0  0  0  0  0
    4.3130   -0.2908    4.3783 C   0  0  0  0  0  0  0  0  0  0  0  0
    3.0473    1.6884    3.5224 C   0  0  0  0  0  0  0  0  0  0  0  0
    4.6096    2.7871    0.8643 F   0  0  0  0  0  0  0  0  0  0  0  0
    3.2982   -2.7300   -0.3937 F   0  0  0  0  0  0  0  0  0  0  0  0
   -1.3057   -1.3409    0.2612 C   0  0  0  0  0  0  0  0  0  0  0  0
   -2.4410   -1.9334    0.6967 C   0  0  0  0  0  0  0  0  0  0  0  0
   -3.6585   -1.3634    0.6615 C   0  0  0  0  0  0  0  0  0  0  0  0
   -3.7400   -0.1160    0.1790 C   0  0  0  0  0  0  0  0  0  0  0  0
   -2.6274    0.4980   -0.2418 C   0  0  0  0  0  0  0  0  0  0  0  0
   -4.7823   -2.0026    1.1007 C   0  0  0  0  0  0  0  0  0  0  0  0
   -6.0064   -1.4195    1.0658 O   0  0  0  0  0  0  0  0  0  0  0  0
   -4.7681   -3.1294    1.5493 O   0  0  0  0  0  0  0  0  0  0  0  0
   -0.0893   -1.9614    0.3729 O   0  0  0  0  0  0  0  0  0  0  0  0
    0.0671   -3.1009    1.1863 C   0  0  0  0  0  0  0  0  0  0  0  0
    2.9088    0.5038   -2.5504 H   0  0  0  0  0  0  0  0  0  0  0  0
    2.8508    1.3967    0.7348 H   0  0  0  0  0  0  0  0  0  0  0  0
    2.4260   -1.5035    0.5945 H   0  0  0  0  0  0  0  0  0  0  0  0
    1.1754   -1.2037   -1.3865 H   0  0  0  0  0  0  0  0  0  0  0  0
    4.4562   -4.8039   -4.1350 H   0  0  0  0  0  0  0  0  0  0  0  0
    4.3227   -2.7263   -5.3932 H   0  0  0  0  0  0  0  0  0  0  0  0
    3.7004   -0.6718   -4.3021 H   0  0  0  0  0  0  0  0  0  0  0  0
    5.1261    0.8542   -3.1115 H   0  0  0  0  0  0  0  0  0  0  0  0
    6.1163    2.8310   -4.0090 H   0  0  0  0  0  0  0  0  0  0  0  0
    5.6559    4.7380   -0.2547 H   0  0  0  0  0  0  0  0  0  0  0  0
   -0.9291    1.6601   -0.9234 H   0  0  0  0  0  0  0  0  0  0  0  0
    5.0212    0.5428    1.9293 H   0  0  0  0  0  0  0  0  0  0  0  0
    4.3227   -1.0956    1.8256 H   0  0  0  0  0  0  0  0  0  0  0  0
    1.6483   -0.5862    4.4334 H   0  0  0  0  0  0  0  0  0  0  0  0
    1.2316   -0.1976    2.7520 H   0  0  0  0  0  0  0  0  0  0  0  0
    2.1967   -1.6775    3.1185 H   0  0  0  0  0  0  0  0  0  0  0  0
    3.8771   -0.1506    5.3932 H   0  0  0  0  0  0  0  0  0  0  0  0
    5.2775    0.2654    4.3563 H   0  0  0  0  0  0  0  0  0  0  0  0
    4.5460   -1.3739    4.2659 H   0  0  0  0  0  0  0  0  0  0  0  0
    3.9701    2.3071    3.4545 H   0  0  0  0  0  0  0  0  0  0  0  0
    2.3091    2.0939    2.7962 H   0  0  0  0  0  0  0  0  0  0  0  0
    2.6164    1.8451    4.5371 H   0  0  0  0  0  0  0  0  0  0  0  0
   -2.3730   -2.9512    1.1067 H   0  0  0  0  0  0  0  0  0  0  0  0
   -4.6975    0.4274    0.1177 H   0  0  0  0  0  0  0  0  0  0  0  0
   -2.7541    1.5255   -0.6299 H   0  0  0  0  0  0  0  0  0  0  0  0
   -6.6543   -2.0476    1.4231 H   0  0  0  0  0  0  0  0  0  0  0  0
    1.1527   -3.3433    1.2228 H   0  0  0  0  0  0  0  0  0  0  0  0
   -0.2720   -2.8866    2.2244 H   0  0  0  0  0  0  0  0  0  0  0  0
   -0.4539   -3.9765    0.7402 H   0  0  0  0  0  0  0  0  0  0  0  0
  2  1  1  0      
  1  5  1  0      
  1  6  1  0      
  1 43  1  0      
  3  2  1  0      
  2 12  1  0      
  2 24  1  0      
  4  3  1  0      
  3 26  1  0      
  3 44  1  0      
  4  5  1  0      
  4 45  1  0      
  5 18  1  0      
  5 46  1  0      
  6  7  1  0      
  6 11  2  0      
  7  8  2  0      
  7 32  1  0      
  8  9  1  0      
  8 22  1  0      
  9 10  2  0      
  9 47  1  0      
 10 11  1  0      
 10 48  1  0      
 11 49  1  0      
 12 13  1  0      
 12 17  2  0      
 13 14  2  0      
 13 50  1  0      
 14 15  1  0      
 14 51  1  0      
 15 16  2  0      
 15 23  1  0      
 16 17  1  0      
 16 52  1  0      
 17 31  1  0      
 18 19  1  0      
 18 20  2  0      
 19 21  1  0      
 19 53  1  0      
 21 33  1  0      
 21 37  2  0      
 24 25  3  0      
 26 27  1  0      
 26 54  1  0      
 26 55  1  0      
 27 28  1  0      
 27 29  1  0      
 27 30  1  0      
 28 56  1  0      
 28 57  1  0      
 28 58  1  0      
 29 59  1  0      
 29 60  1  0      
 29 61  1  0      
 30 62  1  0      
 30 63  1  0      
 30 64  1  0      
 33 34  2  0      
 33 41  1  0      
 34 35  1  0      
 34 65  1  0      
 35 36  2  0      
 35 38  1  0      
 36 37  1  0      
 36 66  1  0      
 37 67  1  0      
 38 39  1  0      
 38 40  2  0      
 39 68  1  0      
 41 42  1  0      
 42 69  1  0      
 42 70  1  0      
 42 71  1  0      
M  END
