
  Chem3D Core 15.008171512453D

 49 53  0  0  0  0  0  0  0  0999 V2000
    0.3465    2.8458   -0.8333 O   0  0  0  0  0  0  0  0  0  0  0  0
    0.6893    1.7976   -0.3361 C   0  0  0  0  0  0  0  0  0  0  0  0
   -0.2542    0.9357    0.1591 N   0  0  0  0  0  0  0  0  0  0  0  0
   -1.5611    1.2088   -0.0641 C   0  0  0  0  0  0  0  0  0  0  0  0
   -2.3689    1.5776    0.9457 C   0  0  0  0  0  0  0  0  0  0  0  0
   -3.6668    1.8350    0.7210 C   0  0  0  0  0  0  0  0  0  0  0  0
   -4.1682    1.7290   -0.5190 C   0  0  0  0  0  0  0  0  0  0  0  0
   -3.3662    1.3742   -1.5343 C   0  0  0  0  0  0  0  0  0  0  0  0
   -2.0685    1.1189   -1.3070 C   0  0  0  0  0  0  0  0  0  0  0  0
    0.1051   -0.2498    0.7024 C   0  0  0  0  0  0  0  0  0  0  0  0
   -0.9332   -1.2360    1.2158 C   0  0  0  0  0  0  0  0  0  0  0  0
   -1.5250   -0.7256    2.0116 H   0  0  0  0  0  0  0  0  0  0  0  0
   -1.8297   -1.5558    0.0821 N   0  0  0  0  0  0  0  0  0  0  0  0
   -3.0520   -1.8878    0.1873 C   0  0  0  0  0  0  0  0  0  0  0  0
   -3.7205   -2.1065   -0.9590 C   0  0  0  0  0  0  0  0  0  0  0  0
   -3.3733   -1.9954   -2.1696 N   0  0  0  0  0  0  0  0  0  0  0  0
   -4.4017   -2.3350   -2.8249 C   0  0  0  0  0  0  0  0  0  0  0  0
   -5.3930   -2.6748   -2.1141 N   0  0  0  0  0  0  0  0  0  0  0  0
   -4.9887   -2.5443   -0.9235 C   0  0  0  0  0  0  0  0  0  0  0  0
   -5.5609   -2.7978    0.1737 N   0  0  0  0  0  0  0  0  0  0  0  0
   -4.8648   -2.5682    1.2096 C   0  0  0  0  0  0  0  0  0  0  0  0
   -3.7165   -2.0172    1.2693 N   0  0  0  0  0  0  0  0  0  0  0  0
   -0.3861   -2.5442    1.8198 C   0  0  0  0  0  0  0  0  0  0  0  0
    0.3022   -2.3480    3.1790 C   0  0  0  0  0  0  0  0  0  0  0  0
    1.3177   -0.5896    0.7716 N   0  0  0  0  0  0  0  0  0  0  0  0
    2.2300    0.1783    0.3495 C   0  0  0  0  0  0  0  0  0  0  0  0
    1.9844    1.3820   -0.2100 C   0  0  0  0  0  0  0  0  0  0  0  0
    3.0289    2.1303   -0.6312 C   0  0  0  0  0  0  0  0  0  0  0  0
    2.8841    3.3225   -1.1906 F   0  0  0  0  0  0  0  0  0  0  0  0
    4.2857    1.6781   -0.4916 C   0  0  0  0  0  0  0  0  0  0  0  0
    4.5262    0.4831    0.0627 C   0  0  0  0  0  0  0  0  0  0  0  0
    3.4950   -0.2625    0.4808 C   0  0  0  0  0  0  0  0  0  0  0  0
   -1.9696    1.6714    1.9696 H   0  0  0  0  0  0  0  0  0  0  0  0
   -4.3229    2.1303    1.5568 H   0  0  0  0  0  0  0  0  0  0  0  0
   -5.2358    1.9339   -0.7035 H   0  0  0  0  0  0  0  0  0  0  0  0
   -3.7756    1.2848   -2.5544 H   0  0  0  0  0  0  0  0  0  0  0  0
   -1.4234    0.8174   -2.1496 H   0  0  0  0  0  0  0  0  0  0  0  0
   -1.4448   -1.4762   -0.8920 H   0  0  0  0  0  0  0  0  0  0  0  0
   -4.4283   -2.3432   -3.9229 H   0  0  0  0  0  0  0  0  0  0  0  0
   -5.3275   -2.8715    2.1680 H   0  0  0  0  0  0  0  0  0  0  0  0
   -4.0001   -1.0347    1.4253 H   0  0  0  0  0  0  0  0  0  0  0  0
   -1.2363   -3.2505    1.9845 H   0  0  0  0  0  0  0  0  0  0  0  0
    0.2988   -3.0479    1.0983 H   0  0  0  0  0  0  0  0  0  0  0  0
    0.6559   -3.3225    3.5879 H   0  0  0  0  0  0  0  0  0  0  0  0
    1.1873   -1.6779    3.1145 H   0  0  0  0  0  0  0  0  0  0  0  0
   -0.4001   -1.9070    3.9229 H   0  0  0  0  0  0  0  0  0  0  0  0
    5.1329    2.2944   -0.8369 H   0  0  0  0  0  0  0  0  0  0  0  0
    5.5609    0.1180    0.1733 H   0  0  0  0  0  0  0  0  0  0  0  0
    3.7054   -1.2460    0.9366 H   0  0  0  0  0  0  0  0  0  0  0  0
  1  2  2  0      
  2  3  1  0      
 27  2  1  0      
  3  4  1  0      
  3 10  1  0      
  4  5  1  0      
  4  9  2  0      
  5  6  2  0      
  5 33  1  0      
  6  7  1  0      
  6 34  1  0      
  7  8  2  0      
  7 35  1  0      
  8  9  1  0      
  8 36  1  0      
  9 37  1  0      
 10 11  1  0      
 10 25  2  0      
 11 12  1  0      
 11 13  1  0      
 11 23  1  0      
 13 14  1  0      
 13 38  1  0      
 14 15  2  0      
 14 22  1  0      
 16 15  1  0      
 15 19  1  0      
 16 17  2  0      
 17 18  1  0      
 17 39  1  0      
 18 19  2  0      
 19 20  1  0      
 20 21  2  0      
 21 22  1  0      
 21 40  1  0      
 22 41  1  0      
 23 24  1  0      
 23 42  1  0      
 23 43  1  0      
 24 44  1  0      
 24 45  1  0      
 24 46  1  0      
 25 26  1  0      
 27 26  1  0      
 32 26  2  0      
 28 27  2  0      
 28 29  1  0      
 30 28  1  0      
 31 30  2  0      
 30 47  1  0      
 32 31  1  0      
 31 48  1  0      
 32 49  1  0      
M  END
