
  Chem3D Core 15.010021516133D

 58 61  0  0  0  0  0  0  0  0999 V2000
   -9.1452   -2.6977    4.5069 F   0  0  0  0  0  0  0  0  0  0  0  0
   -4.6141   -2.2314    5.2079 O   0  0  0  0  0  0  0  0  0  0  0  0
    3.3379    0.5404   -1.4161 O   0  0  0  0  0  0  0  0  0  0  0  0
    5.8592   -0.1091   -1.0781 O   0  0  0  0  0  0  0  0  0  0  0  0
    6.7718    2.9029   -6.0600 O   0  0  0  0  0  0  0  0  0  0  0  0
   -3.6449   -1.9537    4.3531 N   0  0  0  0  0  0  0  0  0  0  0  0
   -1.1048   -0.0152    0.5917 N   0  0  0  0  0  0  0  0  0  0  0  0
   -5.4237   -1.9974    3.2627 C   0  0  0  0  0  0  0  0  0  0  0  0
   -4.1013   -1.8105    3.1808 C   0  0  0  0  0  0  0  0  0  0  0  0
   -5.6551   -2.2534    4.5551 C   0  0  0  0  0  0  0  0  0  0  0  0
   -3.2557   -1.4841    1.9823 C   0  0  0  0  0  0  0  0  0  0  0  0
   -6.4128   -1.9688    2.3632 C   0  0  0  0  0  0  0  0  0  0  0  0
   -6.8974   -2.4912    4.9953 C   0  0  0  0  0  0  0  0  0  0  0  0
   -7.9052   -2.4665    4.1041 C   0  0  0  0  0  0  0  0  0  0  0  0
   -3.3731    0.0020    1.6206 C   0  0  0  0  0  0  0  0  0  0  0  0
   -1.7693   -1.8139    2.1728 C   0  0  0  0  0  0  0  0  0  0  0  0
   -7.6598   -2.2080    2.8054 C   0  0  0  0  0  0  0  0  0  0  0  0
   -2.5095    0.3276    0.3921 C   0  0  0  0  0  0  0  0  0  0  0  0
   -0.9593   -1.4270    0.9243 C   0  0  0  0  0  0  0  0  0  0  0  0
    4.2427    0.9864   -2.3535 C   0  0  0  0  0  0  0  0  0  0  0  0
    5.5443    0.6500   -2.1849 C   0  0  0  0  0  0  0  0  0  0  0  0
    6.1241    1.8150   -4.1724 C   0  0  0  0  0  0  0  0  0  0  0  0
    6.4459    1.0745   -3.0956 C   0  0  0  0  0  0  0  0  0  0  0  0
    3.9160    1.7237   -3.4320 C   0  0  0  0  0  0  0  0  0  0  0  0
    4.8277    2.1341   -4.3245 C   0  0  0  0  0  0  0  0  0  0  0  0
   -0.3240    0.3683   -0.5836 C   0  0  0  0  0  0  0  0  0  0  0  0
    7.0515    2.2351   -5.0850 C   0  0  0  0  0  0  0  0  0  0  0  0
    1.1957    0.1642   -0.4361 C   0  0  0  0  0  0  0  0  0  0  0  0
    1.9700    0.8036   -1.5924 C   0  0  0  0  0  0  0  0  0  0  0  0
    8.5233    1.8688   -4.9083 C   0  0  0  0  0  0  0  0  0  0  0  0
    7.1989   -0.4753   -0.8409 C   0  0  0  0  0  0  0  0  0  0  0  0
   -3.6391   -2.0968    1.1292 H   0  0  0  0  0  0  0  0  0  0  0  0
   -6.2139   -1.7574    1.3010 H   0  0  0  0  0  0  0  0  0  0  0  0
   -7.0857   -2.7010    6.0600 H   0  0  0  0  0  0  0  0  0  0  0  0
   -4.4376    0.2668    1.4144 H   0  0  0  0  0  0  0  0  0  0  0  0
   -3.0396    0.6247    2.4847 H   0  0  0  0  0  0  0  0  0  0  0  0
   -1.3636   -1.2535    3.0489 H   0  0  0  0  0  0  0  0  0  0  0  0
   -1.6455   -2.9029    2.3856 H   0  0  0  0  0  0  0  0  0  0  0  0
   -8.4980   -2.1916    2.0886 H   0  0  0  0  0  0  0  0  0  0  0  0
   -2.6123    1.4203    0.1836 H   0  0  0  0  0  0  0  0  0  0  0  0
   -2.9225   -0.2131   -0.4931 H   0  0  0  0  0  0  0  0  0  0  0  0
    0.1060   -1.6705    1.1469 H   0  0  0  0  0  0  0  0  0  0  0  0
   -1.2737   -2.0660    0.0651 H   0  0  0  0  0  0  0  0  0  0  0  0
    7.4960    0.7948   -2.9418 H   0  0  0  0  0  0  0  0  0  0  0  0
    2.8727    2.0219   -3.6220 H   0  0  0  0  0  0  0  0  0  0  0  0
    4.4678    2.7357   -5.1760 H   0  0  0  0  0  0  0  0  0  0  0  0
   -0.4863    1.4555   -0.7838 H   0  0  0  0  0  0  0  0  0  0  0  0
   -0.6768   -0.1830   -1.4878 H   0  0  0  0  0  0  0  0  0  0  0  0
    1.4433   -0.9234   -0.4201 H   0  0  0  0  0  0  0  0  0  0  0  0
    1.5384    0.6068    0.5299 H   0  0  0  0  0  0  0  0  0  0  0  0
    1.8020    1.9058   -1.5866 H   0  0  0  0  0  0  0  0  0  0  0  0
    1.6285    0.3561   -2.5550 H   0  0  0  0  0  0  0  0  0  0  0  0
    9.1452    2.2859   -5.7328 H   0  0  0  0  0  0  0  0  0  0  0  0
    8.9314    2.2927   -3.9628 H   0  0  0  0  0  0  0  0  0  0  0  0
    8.6677    0.7649   -4.9348 H   0  0  0  0  0  0  0  0  0  0  0  0
    7.2249   -1.0736    0.0975 H   0  0  0  0  0  0  0  0  0  0  0  0
    7.5789   -1.1168   -1.6671 H   0  0  0  0  0  0  0  0  0  0  0  0
    7.8284    0.4297   -0.6888 H   0  0  0  0  0  0  0  0  0  0  0  0
  1 14  1  0      
  6  2  1  0      
  2 10  1  0      
  3 20  1  0      
  3 29  1  0      
  4 21  1  0      
  4 31  1  0      
  5 27  2  0      
  9  6  2  0      
  7 18  1  0      
  7 19  1  0      
  7 26  1  0      
  9  8  1  0      
 10  8  2  0      
 12  8  1  0      
  9 11  1  0      
 10 13  1  0      
 15 11  1  0      
 11 16  1  0      
 11 32  1  0      
 17 12  2  0      
 12 33  1  0      
 13 14  2  0      
 13 34  1  0      
 14 17  1  0      
 18 15  1  0      
 15 35  1  0      
 15 36  1  0      
 16 19  1  0      
 16 37  1  0      
 16 38  1  0      
 17 39  1  0      
 18 40  1  0      
 18 41  1  0      
 19 42  1  0      
 19 43  1  0      
 20 21  1  0      
 20 24  2  0      
 21 23  2  0      
 23 22  1  0      
 22 25  2  0      
 22 27  1  0      
 23 44  1  0      
 25 24  1  0      
 24 45  1  0      
 25 46  1  0      
 26 28  1  0      
 26 47  1  0      
 26 48  1  0      
 27 30  1  0      
 28 29  1  0      
 28 49  1  0      
 28 50  1  0      
 29 51  1  0      
 29 52  1  0      
 30 53  1  0      
 30 54  1  0      
 30 55  1  0      
 31 56  1  0      
 31 57  1  0      
 31 58  1  0      
M  END
