
  Chem3D Core 15.010151510553D

 18 18  0  0  0  0  0  0  0  0999 V2000
    1.4348    2.7216   -0.5531 N   0  0  0  0  0  0  0  0  0  0  0  0
    2.0206    1.5191   -0.3145 C   0  0  0  0  0  0  0  0  0  0  0  0
    3.2252    1.4788   -0.3121 O   0  0  0  0  0  0  0  0  0  0  0  0
    1.1887    0.4611   -0.0977 C   0  0  0  0  0  0  0  0  0  0  0  0
    1.6874   -0.7619    0.1470 C   0  0  0  0  0  0  0  0  0  0  0  0
    0.8587   -1.7943    0.3587 C   0  0  0  0  0  0  0  0  0  0  0  0
   -0.4780   -1.6429    0.3336 C   0  0  0  0  0  0  0  0  0  0  0  0
   -1.5483   -3.5054    0.7138 I   0  0  0  0  0  0  0  0  0  0  0  0
   -1.0156   -0.4255    0.0902 C   0  0  0  0  0  0  0  0  0  0  0  0
   -0.1501    0.5912   -0.1185 C   0  0  0  0  0  0  0  0  0  0  0  0
   -2.2464   -0.1565    0.0410 N   0  3  0  0  0  0  0  0  0  0  0  0
   -3.2252   -1.0094    0.2172 O   0  5  0  0  0  0  0  0  0  0  0  0
   -2.6892    1.0594   -0.2020 O   0  0  0  0  0  0  0  0  0  0  0  0
    0.4360    2.8474   -0.5730 H   0  0  0  0  0  0  0  0  0  0  0  0
    2.0499    3.5054   -0.7138 H   0  0  0  0  0  0  0  0  0  0  0  0
    2.7729   -0.9536    0.1813 H   0  0  0  0  0  0  0  0  0  0  0  0
    1.3141   -2.7800    0.5559 H   0  0  0  0  0  0  0  0  0  0  0  0
   -0.5657    1.5880   -0.3181 H   0  0  0  0  0  0  0  0  0  0  0  0
  1  2  1  0      
  1 14  1  0      
  1 15  1  0      
  2  3  2  0      
  2  4  1  0      
  4  5  1  0      
  4 10  2  0      
  5  6  2  0      
  5 16  1  0      
  6  7  1  0      
  6 17  1  0      
  7  8  1  0      
  7  9  2  0      
  9 10  1  0      
  9 11  1  0      
 10 18  1  0      
 11 12  1  0      
 11 13  2  0      
M  CHG  2  11   1  12  -1
M  END
