
  Chem3D Core 15.010151510573D

 38 41  0  0  0  0  0  0  0  0999 V2000
    4.6818    0.4347    0.8010 N   0  0  0  0  0  0  0  0  0  0  0  0
    5.0130    1.6112    1.1233 C   0  0  0  0  0  0  0  0  0  0  0  0
    4.2364    2.5791    1.3700 N   0  0  0  0  0  0  0  0  0  0  0  0
    2.9826    2.3989    1.2794 C   0  0  0  0  0  0  0  0  0  0  0  0
    2.5240    1.2012    0.8650 C   0  0  0  0  0  0  0  0  0  0  0  0
    3.4409    0.2313    0.6834 C   0  0  0  0  0  0  0  0  0  0  0  0
    1.3213    0.6435    0.5918 C   0  0  0  0  0  0  0  0  0  0  0  0
    1.5419   -0.5946    0.4021 N   0  0  0  0  0  0  0  0  0  0  0  0
    2.7554   -0.7996    0.4183 N   0  0  0  0  0  0  0  0  0  0  0  0
    3.4475   -2.0829    0.1579 C   0  0  0  0  0  0  0  0  0  0  0  0
    2.5593   -3.2830    0.5254 C   0  0  0  0  0  0  0  0  0  0  0  0
    3.8743   -2.1563   -1.3163 C   0  0  0  0  0  0  0  0  0  0  0  0
    0.0601    1.1195    0.4724 C   0  0  0  0  0  0  0  0  0  0  0  0
    2.2253    3.3429    1.6536 N   0  0  0  0  0  0  0  0  0  0  0  0
   -0.2327    2.4234    0.2662 C   0  0  0  0  0  0  0  0  0  0  0  0
   -1.4853    2.8986    0.1436 C   0  0  0  0  0  0  0  0  0  0  0  0
   -2.4855    2.0160    0.2021 C   0  0  0  0  0  0  0  0  0  0  0  0
   -2.2333    0.7167    0.3501 C   0  0  0  0  0  0  0  0  0  0  0  0
   -0.9835    0.2559    0.4699 C   0  0  0  0  0  0  0  0  0  0  0  0
   -3.6951    2.1832    0.1044 O   0  0  0  0  0  0  0  0  0  0  0  0
   -4.2240    1.0700    0.1906 C   0  0  0  0  0  0  0  0  0  0  0  0
   -3.3611    0.1487    0.3401 N   0  0  0  0  0  0  0  0  0  0  0  0
   -5.4796    0.9309    0.1257 N   0  0  0  0  0  0  0  0  0  0  0  0
    6.0938    1.8054    1.2310 H   0  0  0  0  0  0  0  0  0  0  0  0
    4.3585   -2.1398    0.8046 H   0  0  0  0  0  0  0  0  0  0  0  0
    3.1023   -4.2447    0.3792 H   0  0  0  0  0  0  0  0  0  0  0  0
    2.2439   -3.2342    1.5930 H   0  0  0  0  0  0  0  0  0  0  0  0
    1.6402   -3.3184   -0.1026 H   0  0  0  0  0  0  0  0  0  0  0  0
    4.4109   -3.1080   -1.5334 H   0  0  0  0  0  0  0  0  0  0  0  0
    4.5583   -1.3186   -1.5827 H   0  0  0  0  0  0  0  0  0  0  0  0
    2.9894   -2.0994   -1.9902 H   0  0  0  0  0  0  0  0  0  0  0  0
    2.6437    4.2447    1.9902 H   0  0  0  0  0  0  0  0  0  0  0  0
    1.1878    3.2267    1.7169 H   0  0  0  0  0  0  0  0  0  0  0  0
    0.5571    3.1636    0.0797 H   0  0  0  0  0  0  0  0  0  0  0  0
   -1.6873    3.9648   -0.0471 H   0  0  0  0  0  0  0  0  0  0  0  0
   -0.8699   -0.8329    0.5953 H   0  0  0  0  0  0  0  0  0  0  0  0
   -5.9128   -0.0223    0.1967 H   0  0  0  0  0  0  0  0  0  0  0  0
   -6.0938    1.7725    0.0005 H   0  0  0  0  0  0  0  0  0  0  0  0
  2  1  2  0      
  1  6  1  0      
  3  2  1  0      
  2 24  1  0      
  4  3  2  0      
  5  4  1  0      
  4 14  1  0      
  5  6  2  0      
  7  5  1  0      
  9  6  1  0      
  8  7  2  0      
  7 13  1  0      
  9  8  1  0      
  9 10  1  0      
 10 11  1  0      
 10 12  1  0      
 10 25  1  0      
 11 26  1  0      
 11 27  1  0      
 11 28  1  0      
 12 29  1  0      
 12 30  1  0      
 12 31  1  0      
 13 15  1  0      
 13 19  2  0      
 14 32  1  0      
 14 33  1  0      
 15 16  2  0      
 15 34  1  0      
 16 17  1  0      
 16 35  1  0      
 17 18  2  0      
 17 20  1  0      
 18 19  1  0      
 22 18  1  0      
 19 36  1  0      
 20 21  1  0      
 21 22  2  0      
 21 23  1  0      
 23 37  1  0      
 23 38  1  0      
M  END
