
  Chem3D Core 15.003291616333D

  0  0  0     0  0              0 V3000
M  V30 BEGIN CTAB
M  V30 COUNTS 42 44 0 0 0
M  V30 BEGIN ATOM
M  V30 1 O -3.521035 -5.912898 -1.840990 0
M  V30 2 C -2.762768 -4.971258 -1.757182 0
M  V30 3 O -1.419418 -5.078157 -1.640746 0
M  V30 4 C -3.188529 -3.510023 -1.755291 0
M  V30 5 N -2.211304 -2.730667 -0.993132 0
M  V30 6 C -2.033442 -1.382797 -1.151701 0
M  V30 7 C -1.053660 -0.867391 -0.346507 0
M  V30 8 C 0.094844 -1.564805 -0.187785 0
M  V30 9 O 0.293660 -2.732314 -0.869649 0
M  V30 10 C 1.092103 -1.065642 0.572443 0
M  V30 11 C 0.961586 0.126296 1.190850 0
M  V30 12 N -0.196474 0.818088 1.044956 0
M  V30 13 C -0.370631 2.128928 1.705029 0
M  V30 14 C 0.436276 3.207204 1.007585 0
M  V30 15 C 0.456276 3.299011 -0.334777 0
M  V30 16 C 1.173671 4.249436 -0.953880 0
M  V30 17 C 1.884059 5.130567 -0.234120 0
M  V30 18 C 1.869126 5.055827 1.104980 0
M  V30 19 C 1.149160 4.102230 1.716095 0
M  V30 20 C -1.237606 0.327383 0.290237 0
M  V30 21 O -2.289734 0.922522 0.219534 0
M  V30 22 C 1.995537 0.586529 1.924760 0
M  V30 23 C 3.137518 -0.101426 2.061101 0
M  V30 24 C 3.263216 -1.285150 1.452202 0
M  V30 25 C 2.244718 -1.752399 0.717478 0
M  V30 26 O -2.814352 -0.752314 -1.826865 0
M  V30 27 H -0.968224 -4.221501 -1.693985 0
M  V30 28 H -3.230075 -3.176563 -2.817862 0
M  V30 29 H -4.195243 -3.407715 -1.289869 0
M  V30 30 H -1.639471 -3.225189 -0.308878 0
M  V30 31 H 1.226036 -2.984822 -0.920734 0
M  V30 32 H -1.421240 2.489990 1.739854 0
M  V30 33 H -0.124686 2.039987 2.787039 0
M  V30 34 H -0.122629 2.589118 -0.947408 0
M  V30 35 H 1.178734 4.307638 -2.055316 0
M  V30 36 H 2.474144 5.912898 -0.739830 0
M  V30 37 H 2.448638 5.779027 1.703031 0
M  V30 38 H 1.148927 4.058926 2.817862 0
M  V30 39 H 1.963510 1.551069 2.451746 0
M  V30 40 H 3.966768 0.299135 2.668284 0
M  V30 41 H 4.195243 -1.865611 1.557242 0
M  V30 42 H 2.412342 -2.735251 0.248948 0
M  V30 END ATOM
M  V30 BEGIN BOND
M  V30 1 2 1 2
M  V30 2 1 2 3
M  V30 3 1 2 4
M  V30 4 1 3 27
M  V30 5 1 4 5
M  V30 6 1 4 28
M  V30 7 1 4 29
M  V30 8 1 5 6
M  V30 9 1 5 30
M  V30 10 1 6 7
M  V30 11 2 6 26
M  V30 12 2 7 8
M  V30 13 1 20 7
M  V30 14 1 8 9
M  V30 15 1 8 10
M  V30 16 1 9 31
M  V30 17 2 11 10
M  V30 18 1 10 25
M  V30 19 1 11 12
M  V30 20 1 22 11
M  V30 21 1 12 13
M  V30 22 1 12 20
M  V30 23 1 13 14
M  V30 24 1 13 32
M  V30 25 1 13 33
M  V30 26 1 14 15
M  V30 27 2 14 19
M  V30 28 2 15 16
M  V30 29 1 15 34
M  V30 30 1 16 17
M  V30 31 1 16 35
M  V30 32 2 17 18
M  V30 33 1 17 36
M  V30 34 1 18 19
M  V30 35 1 18 37
M  V30 36 1 19 38
M  V30 37 2 20 21
M  V30 38 2 23 22
M  V30 39 1 22 39
M  V30 40 1 24 23
M  V30 41 1 23 40
M  V30 42 2 24 25
M  V30 43 1 24 41
M  V30 44 1 25 42
M  V30 END BOND
M  V30 END CTAB
M  END
