
  Chem3D Core 15.010151510363D

 64 67  0  0  0  0  0  0  0  0999 V2000
   -0.8774   -1.1965    1.7955 C   0  0  0  0  0  0  0  0  0  0  0  0
    0.3875   -1.3240    2.2241 C   0  0  0  0  0  0  0  0  0  0  0  0
    1.3565   -1.6253    1.3469 C   0  0  0  0  0  0  0  0  0  0  0  0
    1.0533   -1.7873    0.0496 C   0  0  0  0  0  0  0  0  0  0  0  0
   -0.2072   -1.6489   -0.4051 C   0  0  0  0  0  0  0  0  0  0  0  0
   -1.1663   -1.3615    0.4949 C   0  0  0  0  0  0  0  0  0  0  0  0
    0.7661   -1.0936    3.8922 Cl  0  0  0  0  0  0  0  0  0  0  0  0
   -0.4777   -1.8168   -1.8919 C   0  0  0  0  0  0  0  0  0  0  0  0
    0.4377   -0.9526   -2.7736 C   0  0  0  0  0  0  0  0  0  0  0  0
    1.1834   -1.4820   -3.5631 O   0  0  0  0  0  0  0  0  0  0  0  0
    0.3765    0.4171   -2.6309 N   0  0  0  0  0  0  0  0  0  0  0  0
    1.2636    1.3207   -3.3536 C   0  0  0  0  0  0  0  0  0  0  0  0
    2.3773    1.7610   -2.3917 C   0  0  0  0  0  0  0  0  0  0  0  0
    1.8924    2.0829   -1.0103 N   0  0  0  0  0  0  0  0  0  0  0  0
    0.5340    1.7042   -0.5552 C   0  0  0  0  0  0  0  0  0  0  0  0
   -0.4011    1.1640   -1.6517 C   0  0  0  0  0  0  0  0  0  0  0  0
    2.7599    2.5749   -0.2013 C   0  0  0  0  0  0  0  0  0  0  0  0
    2.6024    2.9066    1.1054 C   0  0  0  0  0  0  0  0  0  0  0  0
    3.6584    3.3666    1.7957 C   0  0  0  0  0  0  0  0  0  0  0  0
    4.8067    3.5335    1.3091 N   0  0  0  0  0  0  0  0  0  0  0  0
    4.8741    3.2251    0.0878 C   0  0  0  0  0  0  0  0  0  0  0  0
    3.9422    2.7763   -0.6405 N   0  0  0  0  0  0  0  0  0  0  0  0
    1.4191    2.8874    2.0609 C   0  0  0  0  0  0  0  0  0  0  0  0
    2.1175    2.8420    3.4446 C   0  0  0  0  0  0  0  0  0  0  0  0
    3.4065    3.6396    3.2474 C   0  0  0  0  0  0  0  0  0  0  0  0
   -1.9361   -1.8170   -2.3915 C   0  0  0  0  0  0  0  0  0  0  0  0
    0.5945    4.1842    1.9580 C   0  0  0  0  0  0  0  0  0  0  0  0
    4.4562    3.1450    4.0538 O   0  0  0  0  0  0  0  0  0  0  0  0
   -2.6877   -2.9208   -1.7909 N   0  0  0  0  0  0  0  0  0  0  0  0
   -4.1254   -2.9363   -2.0826 C   0  0  0  0  0  0  0  0  0  0  0  0
   -4.4142   -3.0802   -3.5850 C   0  0  0  0  0  0  0  0  0  0  0  0
   -4.7545   -4.1063   -1.3074 C   0  0  0  0  0  0  0  0  0  0  0  0
   -1.6873   -0.9460    2.5012 H   0  0  0  0  0  0  0  0  0  0  0  0
    2.4035   -1.7326    1.6764 H   0  0  0  0  0  0  0  0  0  0  0  0
    1.8669   -2.0249   -0.6561 H   0  0  0  0  0  0  0  0  0  0  0  0
   -2.2141   -1.2332    0.1825 H   0  0  0  0  0  0  0  0  0  0  0  0
   -0.1382   -2.8709   -2.0809 H   0  0  0  0  0  0  0  0  0  0  0  0
    1.6842    0.8679   -4.2794 H   0  0  0  0  0  0  0  0  0  0  0  0
    0.6960    2.2135   -3.7067 H   0  0  0  0  0  0  0  0  0  0  0  0
    3.1054    0.9151   -2.3223 H   0  0  0  0  0  0  0  0  0  0  0  0
    2.8814    2.6373   -2.8672 H   0  0  0  0  0  0  0  0  0  0  0  0
    0.0043    2.5660   -0.0978 H   0  0  0  0  0  0  0  0  0  0  0  0
    0.6514    0.8862    0.1906 H   0  0  0  0  0  0  0  0  0  0  0  0
   -0.9004    2.0194   -2.1657 H   0  0  0  0  0  0  0  0  0  0  0  0
   -1.2464    0.5997   -1.2142 H   0  0  0  0  0  0  0  0  0  0  0  0
    5.8591    3.3515   -0.3938 H   0  0  0  0  0  0  0  0  0  0  0  0
    0.7703    1.9882    1.9878 H   0  0  0  0  0  0  0  0  0  0  0  0
    1.4894    3.2247    4.2794 H   0  0  0  0  0  0  0  0  0  0  0  0
    2.3773    1.7802    3.6777 H   0  0  0  0  0  0  0  0  0  0  0  0
    3.2877    4.7295    3.4318 H   0  0  0  0  0  0  0  0  0  0  0  0
   -1.9188   -1.9495   -3.4988 H   0  0  0  0  0  0  0  0  0  0  0  0
   -2.4435   -0.8487   -2.1899 H   0  0  0  0  0  0  0  0  0  0  0  0
    0.1911    4.3635    0.9386 H   0  0  0  0  0  0  0  0  0  0  0  0
   -0.2710    4.1565    2.6589 H   0  0  0  0  0  0  0  0  0  0  0  0
    1.2015    5.0821    2.2108 H   0  0  0  0  0  0  0  0  0  0  0  0
    5.2874    3.3981    3.6447 H   0  0  0  0  0  0  0  0  0  0  0  0
   -2.2691   -3.8281   -2.1152 H   0  0  0  0  0  0  0  0  0  0  0  0
   -4.5806   -1.9853   -1.7088 H   0  0  0  0  0  0  0  0  0  0  0  0
   -5.5035   -3.2211   -3.7696 H   0  0  0  0  0  0  0  0  0  0  0  0
   -4.1118   -2.1756   -4.1586 H   0  0  0  0  0  0  0  0  0  0  0  0
   -3.8799   -3.9589   -4.0129 H   0  0  0  0  0  0  0  0  0  0  0  0
   -5.8591   -4.1386   -1.4482 H   0  0  0  0  0  0  0  0  0  0  0  0
   -4.5597   -4.0136   -0.2141 H   0  0  0  0  0  0  0  0  0  0  0  0
   -4.3368   -5.0821   -1.6454 H   0  0  0  0  0  0  0  0  0  0  0  0
  1  2  1  0      
  1  6  2  0      
  1 33  1  0      
  2  3  2  0      
  2  7  1  0      
  3  4  1  0      
  3 34  1  0      
  4  5  2  0      
  4 35  1  0      
  5  6  1  0      
  5  8  1  0      
  6 36  1  0      
  8  9  1  0      
  8 26  1  0      
  8 37  1  0      
  9 10  2  0      
  9 11  1  0      
 11 12  1  0      
 11 16  1  0      
 12 13  1  0      
 12 38  1  0      
 12 39  1  0      
 13 14  1  0      
 13 40  1  0      
 13 41  1  0      
 14 15  1  0      
 14 17  1  0      
 15 16  1  0      
 15 42  1  0      
 15 43  1  0      
 16 44  1  0      
 16 45  1  0      
 17 18  1  0      
 17 22  2  0      
 19 18  2  0      
 23 18  1  0      
 20 19  1  0      
 19 25  1  0      
 21 20  2  0      
 22 21  1  0      
 21 46  1  0      
 24 23  1  0      
 23 27  1  0      
 23 47  1  0      
 25 24  1  0      
 24 48  1  0      
 24 49  1  0      
 25 28  1  0      
 25 50  1  0      
 26 29  1  0      
 26 51  1  0      
 26 52  1  0      
 27 53  1  0      
 27 54  1  0      
 27 55  1  0      
 28 56  1  0      
 29 30  1  0      
 29 57  1  0      
 30 31  1  0      
 30 32  1  0      
 30 58  1  0      
 31 59  1  0      
 31 60  1  0      
 31 61  1  0      
 32 62  1  0      
 32 63  1  0      
 32 64  1  0      
M  END
