
  Chem3D Core 15.008171513133D

 87 93  0  0  0  0  0  0  0  0999 V2000
   -6.0524   -3.4716    1.8633 Cl  0  0  0  0  0  0  0  0  0  0  0  0
  -11.0184   -4.8334    2.9517 Cl  0  0  0  0  0  0  0  0  0  0  0  0
   -6.1690   -2.1443   -0.8414 O   0  0  0  0  0  0  0  0  0  0  0  0
   -7.5183   -2.8499   -2.3727 O   0  0  0  0  0  0  0  0  0  0  0  0
   -5.5048    0.5320   -0.1127 O   0  0  0  0  0  0  0  0  0  0  0  0
    6.5572    5.1136    0.7771 O   0  0  0  0  0  0  0  0  0  0  0  0
   -6.7849   -5.6842   -1.7560 N   0  0  0  0  0  0  0  0  0  0  0  0
    5.5177    5.6402   -1.1555 N   0  0  0  0  0  0  0  0  0  0  0  0
    7.6893    5.6103   -1.1046 N   0  0  0  0  0  0  0  0  0  0  0  0
   -7.4307   -5.9490   -2.7734 N   0  0  0  0  0  0  0  0  0  0  0  0
    7.2952    5.8830   -2.3647 N   0  0  0  0  0  0  0  0  0  0  0  0
    0.1858    5.6053   -0.1279 N   0  0  0  0  0  0  0  0  0  0  0  0
   -7.5891   -7.5436   -1.3763 N   0  0  0  0  0  0  0  0  0  0  0  0
   -2.5099    5.0875    0.2655 N   0  0  0  0  0  0  0  0  0  0  0  0
   -6.9341   -3.2933   -1.1563 C   0  0  0  0  0  0  0  0  0  0  0  0
   -7.9518   -3.6681   -0.0661 C   0  0  0  0  0  0  0  0  0  0  0  0
   -6.0045   -4.4683   -1.4629 C   0  0  0  0  0  0  0  0  0  0  0  0
   -7.0162   -1.0546   -1.0334 C   0  0  0  0  0  0  0  0  0  0  0  0
   -7.6436   -3.7668    1.2464 C   0  0  0  0  0  0  0  0  0  0  0  0
   -7.8651   -1.5013   -2.2022 C   0  0  0  0  0  0  0  0  0  0  0  0
   -9.2204   -3.9655   -0.4147 C   0  0  0  0  0  0  0  0  0  0  0  0
   -8.5715   -4.1149    2.1563 C   0  0  0  0  0  0  0  0  0  0  0  0
   -9.8307   -4.3835    1.7815 C   0  0  0  0  0  0  0  0  0  0  0  0
   -6.2097    0.2098   -1.2835 C   0  0  0  0  0  0  0  0  0  0  0  0
  -10.1540   -4.3130    0.4836 C   0  0  0  0  0  0  0  0  0  0  0  0
    6.5290    5.4297   -0.3882 C   0  0  0  0  0  0  0  0  0  0  0  0
    4.2561    5.6200   -0.8916 C   0  0  0  0  0  0  0  0  0  0  0  0
   -6.8614   -6.6233   -0.9065 C   0  0  0  0  0  0  0  0  0  0  0  0
    6.0342    5.8865   -2.3052 C   0  0  0  0  0  0  0  0  0  0  0  0
    1.4488    5.6100   -0.3649 C   0  0  0  0  0  0  0  0  0  0  0  0
    9.0281    5.4938   -0.5383 C   0  0  0  0  0  0  0  0  0  0  0  0
    3.7120    5.3718    0.3179 C   0  0  0  0  0  0  0  0  0  0  0  0
    3.3063    5.8511   -1.8242 C   0  0  0  0  0  0  0  0  0  0  0  0
   -4.7551    1.6825   -0.0819 C   0  0  0  0  0  0  0  0  0  0  0  0
   -7.9135   -7.0917   -2.5145 C   0  0  0  0  0  0  0  0  0  0  0  0
    2.3909    5.3621    0.5672 C   0  0  0  0  0  0  0  0  0  0  0  0
    1.9845    5.8428   -1.5801 C   0  0  0  0  0  0  0  0  0  0  0  0
   -3.2132    4.0219    0.1581 C   0  0  0  0  0  0  0  0  0  0  0  0
   -0.7692    5.8294   -1.2598 C   0  0  0  0  0  0  0  0  0  0  0  0
   -0.2936    5.2649    1.2497 C   0  0  0  0  0  0  0  0  0  0  0  0
   -4.1467    2.0408    1.0613 C   0  0  0  0  0  0  0  0  0  0  0  0
   -4.5608    2.5298   -1.1078 C   0  0  0  0  0  0  0  0  0  0  0  0
   -2.2403    6.0251   -0.8527 C   0  0  0  0  0  0  0  0  0  0  0  0
   -1.7948    5.4917    1.5014 C   0  0  0  0  0  0  0  0  0  0  0  0
   -3.4062    3.1546    1.1747 C   0  0  0  0  0  0  0  0  0  0  0  0
   -3.8182    3.6433   -0.9885 C   0  0  0  0  0  0  0  0  0  0  0  0
   10.1196    5.3495   -1.6215 C   0  0  0  0  0  0  0  0  0  0  0  0
    9.3342    6.6559    0.4216 C   0  0  0  0  0  0  0  0  0  0  0  0
   10.4539    6.6313   -2.3981 C   0  0  0  0  0  0  0  0  0  0  0  0
   -5.3011   -4.6363   -0.6166 H   0  0  0  0  0  0  0  0  0  0  0  0
   -5.3584   -4.2327   -2.3409 H   0  0  0  0  0  0  0  0  0  0  0  0
   -7.6475   -0.9291   -0.1200 H   0  0  0  0  0  0  0  0  0  0  0  0
   -8.9550   -1.4162   -1.9908 H   0  0  0  0  0  0  0  0  0  0  0  0
   -7.6332   -0.9609   -3.1469 H   0  0  0  0  0  0  0  0  0  0  0  0
   -9.5378   -3.9425   -1.4692 H   0  0  0  0  0  0  0  0  0  0  0  0
   -8.3040   -4.1887    3.2244 H   0  0  0  0  0  0  0  0  0  0  0  0
   -6.9141    1.0389   -1.5286 H   0  0  0  0  0  0  0  0  0  0  0  0
   -5.4924    0.0430   -2.1199 H   0  0  0  0  0  0  0  0  0  0  0  0
  -11.1778   -4.5447    0.1442 H   0  0  0  0  0  0  0  0  0  0  0  0
   -6.3778   -6.6206    0.0765 H   0  0  0  0  0  0  0  0  0  0  0  0
    5.4827    6.1075   -3.2244 H   0  0  0  0  0  0  0  0  0  0  0  0
    9.0582    4.5417    0.0519 H   0  0  0  0  0  0  0  0  0  0  0  0
    4.3168    5.1578    1.2078 H   0  0  0  0  0  0  0  0  0  0  0  0
    3.5528    6.0642   -2.8756 H   0  0  0  0  0  0  0  0  0  0  0  0
   -8.5578   -7.6403   -3.2143 H   0  0  0  0  0  0  0  0  0  0  0  0
    2.1267    5.1290    1.6110 H   0  0  0  0  0  0  0  0  0  0  0  0
    1.3570    6.0391   -2.4639 H   0  0  0  0  0  0  0  0  0  0  0  0
   -0.5049    6.7422   -1.8457 H   0  0  0  0  0  0  0  0  0  0  0  0
   -0.7303    4.9329   -1.9262 H   0  0  0  0  0  0  0  0  0  0  0  0
    0.2272    5.8726    2.0281 H   0  0  0  0  0  0  0  0  0  0  0  0
   -0.0929    4.1795    1.4260 H   0  0  0  0  0  0  0  0  0  0  0  0
   -4.2640    1.3836    1.9412 H   0  0  0  0  0  0  0  0  0  0  0  0
   -5.0117    2.3256   -2.0927 H   0  0  0  0  0  0  0  0  0  0  0  0
   -2.3776    7.0671   -0.4768 H   0  0  0  0  0  0  0  0  0  0  0  0
   -2.9228    5.9861   -1.7242 H   0  0  0  0  0  0  0  0  0  0  0  0
   -2.1308    5.0379    2.4544 H   0  0  0  0  0  0  0  0  0  0  0  0
   -1.9745    6.5805    1.6687 H   0  0  0  0  0  0  0  0  0  0  0  0
   -2.9672    3.2955    2.1723 H   0  0  0  0  0  0  0  0  0  0  0  0
   -3.7418    4.2254   -1.9179 H   0  0  0  0  0  0  0  0  0  0  0  0
   11.0617    4.9889   -1.1404 H   0  0  0  0  0  0  0  0  0  0  0  0
    9.8121    4.5525   -2.3408 H   0  0  0  0  0  0  0  0  0  0  0  0
   10.3781    6.5967    0.8053 H   0  0  0  0  0  0  0  0  0  0  0  0
    8.6610    6.6517    1.3079 H   0  0  0  0  0  0  0  0  0  0  0  0
    9.2014    7.6403   -0.0808 H   0  0  0  0  0  0  0  0  0  0  0  0
   11.1778    6.4169   -3.2180 H   0  0  0  0  0  0  0  0  0  0  0  0
    9.5536    7.0891   -2.8632 H   0  0  0  0  0  0  0  0  0  0  0  0
   10.9265    7.3979   -1.7439 H   0  0  0  0  0  0  0  0  0  0  0  0
  1 19  1  0      
  2 23  1  0      
  3 15  1  0      
 18  3  1  0      
 15  4  1  0      
 20  4  1  0      
  5 24  1  0      
  5 34  1  0      
  6 26  2  0      
  7 10  1  0      
  7 17  1  0      
 28  7  1  0      
  8 26  1  0      
  8 27  1  0      
 29  8  1  0      
  9 11  1  0      
  9 26  1  0      
  9 31  1  0      
 10 35  2  0      
 11 29  2  0      
 12 30  1  0      
 12 39  1  0      
 12 40  1  0      
 28 13  2  0      
 35 13  1  0      
 14 38  1  0      
 43 14  1  0      
 14 44  1  0      
 15 16  1  0      
 15 17  1  0      
 16 19  1  0      
 16 21  2  0      
 17 50  1  0      
 17 51  1  0      
 20 18  1  0      
 18 24  1  0      
 18 52  1  0      
 19 22  2  0      
 20 53  1  0      
 20 54  1  0      
 25 21  1  0      
 21 55  1  0      
 22 23  1  0      
 22 56  1  0      
 23 25  2  0      
 24 57  1  0      
 24 58  1  0      
 25 59  1  0      
 27 32  1  0      
 27 33  2  0      
 28 60  1  0      
 29 61  1  0      
 36 30  1  0      
 30 37  2  0      
 31 47  1  0      
 31 48  1  0      
 31 62  1  0      
 32 36  2  0      
 32 63  1  0      
 37 33  1  0      
 33 64  1  0      
 34 41  1  0      
 34 42  2  0      
 35 65  1  0      
 36 66  1  0      
 37 67  1  0      
 45 38  1  0      
 38 46  2  0      
 39 43  1  0      
 39 68  1  0      
 39 69  1  0      
 44 40  1  0      
 40 70  1  0      
 40 71  1  0      
 41 45  2  0      
 41 72  1  0      
 46 42  1  0      
 42 73  1  0      
 43 74  1  0      
 43 75  1  0      
 44 76  1  0      
 44 77  1  0      
 45 78  1  0      
 46 79  1  0      
 47 49  1  0      
 47 80  1  0      
 47 81  1  0      
 48 82  1  0      
 48 83  1  0      
 48 84  1  0      
 49 85  1  0      
 49 86  1  0      
 49 87  1  0      
M  END
