
  Chem3D Core 15.001121613303D

 53 57  0  0  0  0  0  0  0  0999 V2000
   -0.1980   -4.7317    4.0180 C   0  0  0  0  0  0  0  0  0  0  0  0
   -0.0834   -3.9900    2.8686 N   0  0  0  0  0  0  0  0  0  0  0  0
    1.1200   -3.6245    2.3610 C   0  0  0  0  0  0  0  0  0  0  0  0
    2.1922   -4.0010    2.9171 N   0  0  0  0  0  0  0  0  0  0  0  0
    1.0014   -5.1045    4.5444 C   0  0  0  0  0  0  0  0  0  0  0  0
    2.1426   -4.7154    3.9562 C   0  0  0  0  0  0  0  0  0  0  0  0
    3.4496   -5.1428    4.5753 C   0  0  0  0  0  0  0  0  0  0  0  0
    3.0373   -6.0235    5.7626 C   0  0  0  0  0  0  0  0  0  0  0  0
    1.2478   -5.9246    5.7403 S   0  0  0  0  0  0  0  0  0  0  0  0
    1.2305   -2.5355    0.8981 S   0  0  0  0  0  0  0  0  0  0  0  0
    3.0332   -2.4204    0.7073 C   0  0  0  0  0  0  0  0  0  0  0  0
    3.3722   -1.5505   -0.4985 C   0  0  0  0  0  0  0  0  0  0  0  0
    4.0755   -1.9493   -1.3942 O   0  0  0  0  0  0  0  0  0  0  0  0
    2.8158   -0.3053   -0.4538 N   0  0  0  0  0  0  0  0  0  0  0  0
    2.8890    0.7299   -1.3152 C   0  0  0  0  0  0  0  0  0  0  0  0
   -1.2133   -3.5138    2.2953 C   0  0  0  0  0  0  0  0  0  0  0  0
   -1.6284   -3.9918    1.1083 C   0  0  0  0  0  0  0  0  0  0  0  0
   -2.7494   -3.5227    0.5385 C   0  0  0  0  0  0  0  0  0  0  0  0
   -3.4684   -2.5716    1.1539 C   0  0  0  0  0  0  0  0  0  0  0  0
   -3.0646   -2.0937    2.3409 C   0  0  0  0  0  0  0  0  0  0  0  0
   -1.9433   -2.5647    2.9085 C   0  0  0  0  0  0  0  0  0  0  0  0
   -1.2784   -5.0224    4.4827 O   0  0  0  0  0  0  0  0  0  0  0  0
    3.5592    0.7125   -2.3867 N   0  0  0  0  0  0  0  0  0  0  0  0
    2.2241    2.9043   -1.8058 C   0  0  0  0  0  0  0  0  0  0  0  0
    2.1995    1.8355   -0.9949 C   0  0  0  0  0  0  0  0  0  0  0  0
    2.9353    2.8983   -2.9538 C   0  0  0  0  0  0  0  0  0  0  0  0
    3.5778    1.7248   -3.1468 C   0  0  0  0  0  0  0  0  0  0  0  0
    2.9962    3.9511   -3.8139 C   0  0  0  0  0  0  0  0  0  0  0  0
    3.7181    3.9241   -4.9577 C   0  0  0  0  0  0  0  0  0  0  0  0
    3.7845    4.9576   -5.8131 C   0  0  0  0  0  0  0  0  0  0  0  0
    3.1178    6.0898   -5.5592 C   0  0  0  0  0  0  0  0  0  0  0  0
    2.3907    6.1592   -4.4378 C   0  0  0  0  0  0  0  0  0  0  0  0
    2.3389    5.1134   -3.5966 C   0  0  0  0  0  0  0  0  0  0  0  0
    4.0227   -4.2476    4.9124 H   0  0  0  0  0  0  0  0  0  0  0  0
    4.0633   -5.7119    3.8389 H   0  0  0  0  0  0  0  0  0  0  0  0
    3.3483   -7.0846    5.6276 H   0  0  0  0  0  0  0  0  0  0  0  0
    3.4254   -5.6391    6.7329 H   0  0  0  0  0  0  0  0  0  0  0  0
    3.5116   -1.9535    1.5996 H   0  0  0  0  0  0  0  0  0  0  0  0
    3.4839   -3.4297    0.5617 H   0  0  0  0  0  0  0  0  0  0  0  0
    2.2279   -0.0743    0.3347 H   0  0  0  0  0  0  0  0  0  0  0  0
   -1.0515   -4.7796    0.5949 H   0  0  0  0  0  0  0  0  0  0  0  0
   -3.0814   -3.9208   -0.4350 H   0  0  0  0  0  0  0  0  0  0  0  0
   -4.3897   -2.1855    0.6868 H   0  0  0  0  0  0  0  0  0  0  0  0
   -3.6541   -1.3125    2.8495 H   0  0  0  0  0  0  0  0  0  0  0  0
   -1.6211   -2.1597    3.8828 H   0  0  0  0  0  0  0  0  0  0  0  0
    1.6283    3.7604   -1.4586 H   0  0  0  0  0  0  0  0  0  0  0  0
    1.6077    1.8715   -0.0637 H   0  0  0  0  0  0  0  0  0  0  0  0
    4.2096    1.5244   -4.0252 H   0  0  0  0  0  0  0  0  0  0  0  0
    4.3072    3.0510   -5.2739 H   0  0  0  0  0  0  0  0  0  0  0  0
    4.3897    4.8813   -6.7329 H   0  0  0  0  0  0  0  0  0  0  0  0
    3.1663    6.9430   -6.2555 H   0  0  0  0  0  0  0  0  0  0  0  0
    1.8336    7.0846   -4.2111 H   0  0  0  0  0  0  0  0  0  0  0  0
    1.7100    5.2895   -2.7118 H   0  0  0  0  0  0  0  0  0  0  0  0
  1  2  1  0      
  5  1  1  0      
  1 22  2  0      
  2  3  1  0      
  2 16  1  0      
  3  4  2  0      
  3 10  1  0      
  6  4  1  0      
  6  5  2  0      
  9  5  1  0      
  7  6  1  0      
  8  7  1  0      
  7 34  1  0      
  7 35  1  0      
  9  8  1  0      
  8 36  1  0      
  8 37  1  0      
 10 11  1  0      
 11 12  1  0      
 11 38  1  0      
 11 39  1  0      
 12 13  2  0      
 12 14  1  0      
 14 15  1  0      
 14 40  1  0      
 15 23  2  0      
 25 15  1  0      
 16 17  1  0      
 16 21  2  0      
 17 18  2  0      
 17 41  1  0      
 18 19  1  0      
 18 42  1  0      
 19 20  2  0      
 19 43  1  0      
 20 21  1  0      
 20 44  1  0      
 21 45  1  0      
 23 27  1  0      
 24 25  2  0      
 26 24  1  0      
 24 46  1  0      
 25 47  1  0      
 26 27  2  0      
 26 28  1  0      
 27 48  1  0      
 28 29  1  0      
 28 33  2  0      
 29 30  2  0      
 29 49  1  0      
 30 31  1  0      
 30 50  1  0      
 31 32  2  0      
 31 51  1  0      
 32 33  1  0      
 32 52  1  0      
 33 53  1  0      
M  END
