
  Chem3D Core 15.008141514493D

 50 55  0  0  0  0  0  0  0  0999 V2000
   -5.4024   -0.5127   -0.4549 C   0  0  0  0  0  0  0  0  0  0  0  0
   -5.4468   -0.9496   -1.9319 C   0  0  0  0  0  0  0  0  0  0  0  0
   -6.4652    0.6005   -0.3771 C   0  0  0  0  0  0  0  0  0  0  0  0
   -6.5316   -0.0410   -2.5426 C   0  0  0  0  0  0  0  0  0  0  0  0
   -5.9877    1.7627   -1.2167 C   0  0  0  0  0  0  0  0  0  0  0  0
   -6.0274    1.3830   -2.4991 C   0  0  0  0  0  0  0  0  0  0  0  0
   -3.9436   -0.0940   -0.3612 C   0  0  0  0  0  0  0  0  0  0  0  0
   -3.2332   -0.5989   -1.2983 N   0  0  0  0  0  0  0  0  0  0  0  0
   -4.0030   -0.6702   -2.3182 C   0  0  0  0  0  0  0  0  0  0  0  0
   -1.9817   -0.8931   -1.2507 C   0  0  0  0  0  0  0  0  0  0  0  0
    0.7344   -1.5679   -1.1341 C   0  0  0  0  0  0  0  0  0  0  0  0
    0.0054   -1.7312   -2.2516 C   0  0  0  0  0  0  0  0  0  0  0  0
    0.0744   -1.0840   -0.0675 C   0  0  0  0  0  0  0  0  0  0  0  0
   -1.2999   -1.4159   -2.2939 C   0  0  0  0  0  0  0  0  0  0  0  0
   -1.2320   -0.7761   -0.1322 C   0  0  0  0  0  0  0  0  0  0  0  0
    2.0604   -1.8957   -1.1068 C   0  0  0  0  0  0  0  0  0  0  0  0
    2.6364   -1.8514    0.1301 N   0  0  0  0  0  0  0  0  0  0  0  0
    3.9145   -1.8962    0.5679 C   0  0  0  0  0  0  0  0  0  0  0  0
    6.3289   -2.1603    1.7596 C   0  0  0  0  0  0  0  0  0  0  0  0
    6.2491   -1.7471    0.4830 C   0  0  0  0  0  0  0  0  0  0  0  0
    5.2108   -2.4031    2.4553 C   0  0  0  0  0  0  0  0  0  0  0  0
    5.0448   -1.6022   -0.1148 C   0  0  0  0  0  0  0  0  0  0  0  0
    4.0192   -2.2645    1.8594 C   0  0  0  0  0  0  0  0  0  0  0  0
    7.3717   -1.4619   -0.2016 C   0  0  0  0  0  0  0  0  0  0  0  0
    7.2635   -1.0211   -1.4617 C   0  0  0  0  0  0  0  0  0  0  0  0
    4.9796   -1.1572   -1.3006 N   0  0  0  0  0  0  0  0  0  0  0  0
    6.0260   -0.8822   -1.9543 C   0  0  0  0  0  0  0  0  0  0  0  0
    2.6666   -2.2872   -2.0767 O   0  0  0  0  0  0  0  0  0  0  0  0
   -3.5953    0.6857    0.5001 O   0  0  0  0  0  0  0  0  0  0  0  0
   -3.7170   -0.4811   -3.4817 O   0  0  0  0  0  0  0  0  0  0  0  0
   -5.6095   -1.3551    0.2438 H   0  0  0  0  0  0  0  0  0  0  0  0
   -5.6768   -2.0333   -2.0477 H   0  0  0  0  0  0  0  0  0  0  0  0
   -7.5220    0.0329   -1.3553 C   0  0  0  0  0  0  0  0  0  0  0  0
   -6.8432    0.8636    0.6315 H   0  0  0  0  0  0  0  0  0  0  0  0
   -6.9701   -0.3631   -3.5087 H   0  0  0  0  0  0  0  0  0  0  0  0
   -5.6389    2.7247   -0.8231 H   0  0  0  0  0  0  0  0  0  0  0  0
   -5.7177    1.9699   -3.3717 H   0  0  0  0  0  0  0  0  0  0  0  0
    0.4528   -2.1480   -3.1704 H   0  0  0  0  0  0  0  0  0  0  0  0
    0.5703   -0.9220    0.9039 H   0  0  0  0  0  0  0  0  0  0  0  0
   -1.7788   -1.6422   -3.2581 H   0  0  0  0  0  0  0  0  0  0  0  0
   -1.6508   -0.4297    0.8241 H   0  0  0  0  0  0  0  0  0  0  0  0
    2.0048   -1.9071    0.9146 H   0  0  0  0  0  0  0  0  0  0  0  0
    7.3031   -2.2831    2.2627 H   0  0  0  0  0  0  0  0  0  0  0  0
    5.2718   -2.7247    3.5087 H   0  0  0  0  0  0  0  0  0  0  0  0
    3.1156   -2.4884    2.4537 H   0  0  0  0  0  0  0  0  0  0  0  0
    8.3731   -1.5707    0.2471 H   0  0  0  0  0  0  0  0  0  0  0  0
    8.1521   -0.7678   -2.0616 H   0  0  0  0  0  0  0  0  0  0  0  0
    5.8785   -0.5036   -2.9800 H   0  0  0  0  0  0  0  0  0  0  0  0
   -8.3731    0.7296   -1.5357 H   0  0  0  0  0  0  0  0  0  0  0  0
   -7.9237   -0.9593   -1.0491 H   0  0  0  0  0  0  0  0  0  0  0  0
  1  2  1  0      
  3  1  1  0      
  1  7  1  0      
  1 31  1  0      
  4  2  1  0      
  2  9  1  0      
  2 32  1  0      
  5  3  1  0      
 33  3  1  0      
  3 34  1  0      
  6  4  1  0      
  4 33  1  0      
  4 35  1  0      
  5  6  2  0      
  5 36  1  0      
  6 37  1  0      
  8  7  1  0      
  7 29  2  0      
  9  8  1  0      
  8 10  1  0      
  9 30  2  0      
 10 14  1  0      
 10 15  2  0      
 12 11  1  0      
 11 13  2  0      
 11 16  1  0      
 14 12  2  0      
 12 38  1  0      
 13 15  1  0      
 13 39  1  0      
 14 40  1  0      
 15 41  1  0      
 16 17  1  0      
 16 28  2  0      
 17 18  1  0      
 17 42  1  0      
 18 22  2  0      
 23 18  1  0      
 20 19  2  0      
 19 21  1  0      
 19 43  1  0      
 20 22  1  0      
 24 20  1  0      
 21 23  2  0      
 21 44  1  0      
 22 26  1  0      
 23 45  1  0      
 25 24  2  0      
 24 46  1  0      
 27 25  1  0      
 25 47  1  0      
 27 26  2  0      
 27 48  1  0      
 33 49  1  0      
 33 50  1  0      
M  END
