
  Chem3D Core 15.004011618183D

  0  0  0     0  0              0 V3000
M  V30 BEGIN CTAB
M  V30 COUNTS 42 42 0 0 0
M  V30 BEGIN ATOM
M  V30 1 C -4.694106 0.835309 -1.120177 0
M  V30 2 C -5.350993 -1.599089 -1.311374 0
M  V30 3 C 4.558746 3.845694 -1.272064 0
M  V30 4 C 5.231545 3.160532 -0.338988 0
M  V30 5 C -2.874239 -0.964439 -1.055803 0
M  V30 6 C 2.659175 2.651279 -0.685128 0
M  V30 7 C 0.629032 -0.138160 1.587917 0
M  V30 8 C -4.258746 -0.559064 -1.603030 0
M  V30 9 C 3.257402 3.584686 -1.442500 0
M  V30 10 C 3.309690 1.938446 0.265240 0
M  V30 11 C 4.625962 2.225810 0.417477 0
M  V30 12 C -2.783196 -1.177508 0.464233 0
M  V30 13 C -0.802110 -0.085366 1.104273 0
M  V30 14 C 2.623585 1.011980 0.984548 0
M  V30 15 B -3.339246 -2.608737 0.902575 0
M  V30 16 Cl 2.361454 4.454514 -2.638501 0
M  V30 17 Cl 5.684441 1.468656 1.565540 0
M  V30 18 N 1.385178 0.834253 0.765654 0
M  V30 19 N -1.383354 -1.197855 0.949651 0
M  V30 20 O -1.360618 1.130436 0.859287 0
M  V30 21 O 3.164069 0.228324 1.962584 0
M  V30 22 O -4.182885 -2.801106 2.298116 0
M  V30 23 O -3.177489 -3.963141 -0.015164 0
M  V30 24 H -3.351447 -0.404946 1.029391 0
M  V30 25 H -5.623632 1.165182 -1.638285 0
M  V30 26 H -4.906256 0.850394 -0.028459 0
M  V30 27 H -3.909851 1.598950 -1.326259 0
M  V30 28 H -6.303781 -1.333598 -1.823896 0
M  V30 29 H -5.052396 -2.609703 -1.671338 0
M  V30 30 H -5.571955 -1.665730 -0.223041 0
M  V30 31 H 5.076454 4.606803 -1.879220 0
M  V30 32 H 6.303781 3.391841 -0.211825 0
M  V30 33 H -2.523275 -1.888230 -1.572188 0
M  V30 34 H -2.152222 -0.169633 -1.358826 0
M  V30 35 H 1.586791 2.499617 -0.891777 0
M  V30 36 H 0.632678 0.174502 2.658823 0
M  V30 37 H 1.045172 -1.167473 1.489092 0
M  V30 38 H -4.157921 -0.496405 -2.718970 0
M  V30 39 H -0.672714 1.809065 0.758221 0
M  V30 40 H 2.887284 -0.694699 1.850257 0
M  V30 41 H -4.013605 -3.625021 2.718970 0
M  V30 42 H -3.838241 -4.606803 0.170880 0
M  V30 END ATOM
M  V30 BEGIN BOND
M  V30 1 1 8 1
M  V30 2 1 1 25
M  V30 3 1 1 26
M  V30 4 1 1 27
M  V30 5 1 8 2
M  V30 6 1 2 28
M  V30 7 1 2 29
M  V30 8 1 2 30
M  V30 9 1 3 4
M  V30 10 2 3 9
M  V30 11 1 3 31
M  V30 12 2 4 11
M  V30 13 1 4 32
M  V30 14 1 8 5
M  V30 15 1 12 5
M  V30 16 1 5 33
M  V30 17 1 5 34
M  V30 18 1 6 9
M  V30 19 2 10 6
M  V30 20 1 6 35
M  V30 21 1 13 7
M  V30 22 1 18 7
M  V30 23 1 7 36
M  V30 24 1 7 37
M  V30 25 1 8 38
M  V30 26 1 16 9
M  V30 27 1 11 10
M  V30 28 1 14 10
M  V30 29 1 17 11
M  V30 30 1 12 15
M  V30 31 1 19 12
M  V30 32 1 12 24
M  V30 33 2 19 13
M  V30 34 1 13 20
M  V30 35 2 18 14
M  V30 36 1 21 14
M  V30 37 1 22 15
M  V30 38 1 23 15
M  V30 39 1 20 39
M  V30 40 1 21 40
M  V30 41 1 22 41
M  V30 42 1 23 42
M  V30 END BOND
M  V30 END CTAB
M  END
