
  Chem3D Core 15.004111617213D

  0  0  0     0  0              0 V3000
M  V30 BEGIN CTAB
M  V30 COUNTS 39 41 0 0 0
M  V30 BEGIN ATOM
M  V30 1 O 7.040138 0.728781 1.640401 0
M  V30 2 S 6.244746 0.418748 0.448373 0
M  V30 3 C 4.467741 0.434311 0.630102 0
M  V30 4 C 3.893272 0.016988 1.768845 0
M  V30 5 C 2.557174 0.029839 1.897738 0
M  V30 6 C 1.758939 0.455590 0.899794 0
M  V30 7 N 0.506920 0.425251 1.127418 0
M  V30 8 C -0.526074 0.732926 0.456592 0
M  V30 9 N -1.699542 0.602594 0.926283 0
M  V30 10 N -2.533855 0.966416 0.087351 0
M  V30 11 C -3.645046 1.431352 0.506863 0
M  V30 12 C -4.608409 0.609299 1.045404 0
M  V30 13 C -4.454398 -0.737197 1.053027 0
M  V30 14 F -3.407684 -1.338598 0.506821 0
M  V30 15 C -5.388094 -1.542983 1.584530 0
M  V30 16 C -6.501029 -1.036855 2.128581 0
M  V30 17 C -6.672581 0.290415 2.122636 0
M  V30 18 C -5.747278 1.104917 1.588721 0
M  V30 19 F -6.015872 2.401430 1.646241 0
M  V30 20 O -3.794477 2.636693 0.406188 0
M  V30 21 C -1.884065 1.336803 -0.940243 0
M  V30 22 N -2.434954 1.712358 -2.015428 0
M  V30 23 N -0.648630 1.189835 -0.718755 0
M  V30 24 C 2.347055 0.870380 -0.237217 0
M  V30 25 C 3.683204 0.860357 -0.372130 0
M  V30 26 N 6.905289 1.803274 -0.287246 0
M  V30 27 O 6.786703 -0.376889 -0.657388 0
M  V30 28 H 4.511848 -0.340458 2.609382 0
M  V30 29 H 2.128921 -0.322336 2.852909 0
M  V30 30 H 0.269984 0.063982 2.087077 0
M  V30 31 H -5.244537 -2.636693 1.568552 0
M  V30 32 H -7.265638 -1.700775 2.564612 0
M  V30 33 H -7.589157 0.715921 2.565509 0
M  V30 34 H -3.476974 1.818790 -2.081161 0
M  V30 35 H -1.847714 1.946651 -2.852909 0
M  V30 36 H 1.764203 1.231804 -1.096993 0
M  V30 37 H 4.130316 1.206680 -1.319570 0
M  V30 38 H 7.418127 1.544267 -1.128906 0
M  V30 39 H 7.589157 2.238081 0.330628 0
M  V30 END ATOM
M  V30 BEGIN BOND
M  V30 1 2 1 2
M  V30 2 1 2 3
M  V30 3 1 2 26
M  V30 4 2 2 27
M  V30 5 1 3 4
M  V30 6 2 3 25
M  V30 7 2 4 5
M  V30 8 1 4 28
M  V30 9 1 5 6
M  V30 10 1 5 29
M  V30 11 1 6 7
M  V30 12 2 6 24
M  V30 13 1 7 8
M  V30 14 1 7 30
M  V30 15 2 9 8
M  V30 16 1 8 23
M  V30 17 1 10 9
M  V30 18 1 10 11
M  V30 19 1 10 21
M  V30 20 1 11 12
M  V30 21 2 11 20
M  V30 22 1 12 13
M  V30 23 2 12 18
M  V30 24 1 13 14
M  V30 25 2 13 15
M  V30 26 1 15 16
M  V30 27 1 15 31
M  V30 28 2 16 17
M  V30 29 1 16 32
M  V30 30 1 17 18
M  V30 31 1 17 33
M  V30 32 1 18 19
M  V30 33 1 21 22
M  V30 34 2 23 21
M  V30 35 1 22 34
M  V30 36 1 22 35
M  V30 37 1 24 25
M  V30 38 1 24 36
M  V30 39 1 25 37
M  V30 40 1 26 38
M  V30 41 1 26 39
M  V30 END BOND
M  V30 END CTAB
M  END
