
  Chem3D Core 14.008141513373D

 56 63  0  0  0  0  0  0  0  0999 V2000
    0.8944   -1.8798    1.3105 O   0  0  0  0  0  0  0  0  0  0  0  0
    1.7734   -0.4640   -1.7541 O   0  0  0  0  0  0  0  0  0  0  0  0
    4.0812   -1.6182   -1.6071 O   0  0  0  0  0  0  0  0  0  0  0  0
    3.3015   -3.3805   -0.3821 O   0  0  0  0  0  0  0  0  0  0  0  0
   -5.5079    1.0251    0.4900 O   0  0  0  0  0  0  0  0  0  0  0  0
    0.7831    0.3573    0.4553 N   0  0  0  0  0  0  0  0  0  0  0  0
   -1.3095   -1.8828    0.4771 N   0  0  0  0  0  0  0  0  0  0  0  0
   -4.2097    2.8190    0.3600 N   0  0  0  0  0  0  0  0  0  0  0  0
    1.6029   -0.8889    0.6045 C   0  0  0  0  0  0  0  0  0  0  0  0
    1.8365   -1.4922   -0.7868 C   0  0  0  0  0  0  0  0  0  0  0  0
    0.0133   -2.5169    0.4257 C   0  0  0  0  0  0  0  0  0  0  0  0
    0.6298   -2.4164   -0.9689 C   0  0  0  0  0  0  0  0  0  0  0  0
   -0.4905    0.3336    0.4462 C   0  0  0  0  0  0  0  0  0  0  0  0
   -1.4292   -0.6231    0.4758 C   0  0  0  0  0  0  0  0  0  0  0  0
   -0.8998    1.6091    0.3628 C   0  0  0  0  0  0  0  0  0  0  0  0
   -2.7569   -0.3599    0.4786 C   0  0  0  0  0  0  0  0  0  0  0  0
    2.8836   -0.7373    1.4463 C   0  0  0  0  0  0  0  0  0  0  0  0
    1.2578    1.5333    0.3227 C   0  0  0  0  0  0  0  0  0  0  0  0
   -2.4073   -2.5131    0.4947 C   0  0  0  0  0  0  0  0  0  0  0  0
    0.2021    2.3665    0.2752 C   0  0  0  0  0  0  0  0  0  0  0  0
   -2.2059    1.9019    0.3688 C   0  0  0  0  0  0  0  0  0  0  0  0
   -3.1442    0.9318    0.4420 C   0  0  0  0  0  0  0  0  0  0  0  0
   -3.3664   -1.5665    0.5060 C   0  0  0  0  0  0  0  0  0  0  0  0
    3.1399   -2.2937   -0.8914 C   0  0  0  0  0  0  0  0  0  0  0  0
   -2.8315    3.2595    0.3008 C   0  0  0  0  0  0  0  0  0  0  0  0
    2.4906    2.0492    0.2041 C   0  0  0  0  0  0  0  0  0  0  0  0
   -4.3955    1.4740    0.4399 C   0  0  0  0  0  0  0  0  0  0  0  0
   -2.6824   -3.8254    0.4884 C   0  0  0  0  0  0  0  0  0  0  0  0
    0.3517    3.6926    0.1512 C   0  0  0  0  0  0  0  0  0  0  0  0
   -4.6444   -1.9774    0.5236 C   0  0  0  0  0  0  0  0  0  0  0  0
    2.6528    3.3766    0.0762 C   0  0  0  0  0  0  0  0  0  0  0  0
    1.5913    4.1973    0.0567 C   0  0  0  0  0  0  0  0  0  0  0  0
   -3.9666   -4.2121    0.5088 C   0  0  0  0  0  0  0  0  0  0  0  0
   -4.9394   -3.2886    0.5284 C   0  0  0  0  0  0  0  0  0  0  0  0
    5.3455   -2.2253   -1.7293 C   0  0  0  0  0  0  0  0  0  0  0  0
   -0.0461   -3.5750    0.7657 H   0  0  0  0  0  0  0  0  0  0  0  0
   -0.1053   -1.9923   -1.6911 H   0  0  0  0  0  0  0  0  0  0  0  0
    0.9097   -3.4167   -1.3691 H   0  0  0  0  0  0  0  0  0  0  0  0
    2.7034   -0.0819    2.3288 H   0  0  0  0  0  0  0  0  0  0  0  0
    3.2411   -1.7114    1.8512 H   0  0  0  0  0  0  0  0  0  0  0  0
    3.7588   -0.3603    0.8813 H   0  0  0  0  0  0  0  0  0  0  0  0
    1.0579    0.1449   -1.5462 H   0  0  0  0  0  0  0  0  0  0  0  0
   -2.6372    3.7760   -0.6654 H   0  0  0  0  0  0  0  0  0  0  0  0
   -2.5899    3.8905    1.1849 H   0  0  0  0  0  0  0  0  0  0  0  0
    3.3968    1.4357    0.1784 H   0  0  0  0  0  0  0  0  0  0  0  0
   -1.8963   -4.5948    0.4637 H   0  0  0  0  0  0  0  0  0  0  0  0
   -0.5054    4.3791    0.1153 H   0  0  0  0  0  0  0  0  0  0  0  0
   -5.4971   -1.2945    0.5305 H   0  0  0  0  0  0  0  0  0  0  0  0
   -5.0094    3.4445    0.3435 H   0  0  0  0  0  0  0  0  0  0  0  0
    3.6672    3.7986   -0.0260 H   0  0  0  0  0  0  0  0  0  0  0  0
    1.7377    5.2850   -0.0540 H   0  0  0  0  0  0  0  0  0  0  0  0
   -4.2223   -5.2850    0.5051 H   0  0  0  0  0  0  0  0  0  0  0  0
   -5.9937   -3.6147    0.5415 H   0  0  0  0  0  0  0  0  0  0  0  0
    5.9937   -1.5476   -2.3288 H   0  0  0  0  0  0  0  0  0  0  0  0
    5.8031   -2.3610   -0.7236 H   0  0  0  0  0  0  0  0  0  0  0  0
    5.2544   -3.1982   -2.2623 H   0  0  0  0  0  0  0  0  0  0  0  0
  1  9  1  0      
  1 11  1  0      
 10  2  1  0      
  2 42  1  0      
  3 24  1  0      
  3 35  1  0      
  4 24  2  0      
  5 27  2  0      
  6  9  1  0      
  6 13  1  0      
  6 18  1  0      
  7 11  1  0      
  7 14  1  0      
  7 19  1  0      
  8 25  1  0      
  8 27  1  0      
  8 49  1  0      
  9 10  1  0      
  9 17  1  0      
 10 12  1  0      
 10 24  1  0      
 11 12  1  0      
 11 36  1  0      
 12 37  1  0      
 12 38  1  0      
 13 14  2  0      
 13 15  1  0      
 14 16  1  0      
 15 20  1  0      
 15 21  2  0      
 16 22  2  0      
 16 23  1  0      
 17 39  1  0      
 17 40  1  0      
 17 41  1  0      
 18 20  1  0      
 18 26  2  0      
 19 23  1  0      
 19 28  2  0      
 20 29  2  0      
 21 22  1  0      
 21 25  1  0      
 22 27  1  0      
 23 30  2  0      
 25 43  1  0      
 25 44  1  0      
 26 31  1  0      
 26 45  1  0      
 28 33  1  0      
 28 46  1  0      
 29 32  1  0      
 29 47  1  0      
 30 34  1  0      
 30 48  1  0      
 31 32  2  0      
 31 50  1  0      
 32 51  1  0      
 33 34  2  0      
 33 52  1  0      
 34 53  1  0      
 35 54  1  0      
 35 55  1  0      
 35 56  1  0      
M  END
