
  Chem3D Core 15.010151512553D

 31 33  0  0  0  0  0  0  0  0999 V2000
    3.8092   -4.9154   -0.0546 O   0  0  0  0  0  0  0  0  0  0  0  0
    3.1437   -3.7296   -0.0581 C   0  0  0  0  0  0  0  0  0  0  0  0
    1.8419   -3.6436   -0.3658 C   0  0  0  0  0  0  0  0  0  0  0  0
    1.1966   -2.4666   -0.3575 C   0  0  0  0  0  0  0  0  0  0  0  0
    1.7952   -1.2902   -0.0586 C   0  0  0  0  0  0  0  0  0  0  0  0
    3.0962   -1.4119    0.2800 C   0  0  0  0  0  0  0  0  0  0  0  0
    3.7525   -2.5832    0.2764 C   0  0  0  0  0  0  0  0  0  0  0  0
    1.0434   -0.1531   -0.0829 C   0  0  0  0  0  0  0  0  0  0  0  0
    1.5343    1.1033    0.0269 C   0  0  0  0  0  0  0  0  0  0  0  0
    2.8660    1.3971    0.0420 O   0  0  0  0  0  0  0  0  0  0  0  0
    0.7075    2.1969    0.0518 C   0  0  0  0  0  0  0  0  0  0  0  0
    1.2183    3.2973    0.1552 O   0  0  0  0  0  0  0  0  0  0  0  0
   -0.6454    2.0223   -0.0324 C   0  0  0  0  0  0  0  0  0  0  0  0
   -1.5172    3.0577    0.0324 C   0  0  0  0  0  0  0  0  0  0  0  0
   -1.1553    4.3630    0.1880 O   0  0  0  0  0  0  0  0  0  0  0  0
   -2.8342    2.8003   -0.0521 C   0  0  0  0  0  0  0  0  0  0  0  0
   -3.3293    1.5650   -0.2016 C   0  0  0  0  0  0  0  0  0  0  0  0
   -4.6658    1.3294   -0.2873 O   0  0  0  0  0  0  0  0  0  0  0  0
   -2.4387    0.5674   -0.2684 C   0  0  0  0  0  0  0  0  0  0  0  0
   -1.1114    0.7683   -0.1856 C   0  0  0  0  0  0  0  0  0  0  0  0
   -0.2995   -0.3166   -0.2798 O   0  0  0  0  0  0  0  0  0  0  0  0
    4.7238   -4.7654    0.2347 H   0  0  0  0  0  0  0  0  0  0  0  0
    1.2970   -4.5660   -0.6308 H   0  0  0  0  0  0  0  0  0  0  0  0
    0.1303   -2.5289   -0.6344 H   0  0  0  0  0  0  0  0  0  0  0  0
    3.7056   -0.5709    0.6344 H   0  0  0  0  0  0  0  0  0  0  0  0
    4.8152   -2.6163    0.5732 H   0  0  0  0  0  0  0  0  0  0  0  0
    3.3599    0.6733   -0.3689 H   0  0  0  0  0  0  0  0  0  0  0  0
   -1.9529    4.9154    0.2213 H   0  0  0  0  0  0  0  0  0  0  0  0
   -3.5478    3.6402    0.0038 H   0  0  0  0  0  0  0  0  0  0  0  0
   -4.8152    0.3766   -0.3992 H   0  0  0  0  0  0  0  0  0  0  0  0
   -2.8141   -0.4619   -0.3995 H   0  0  0  0  0  0  0  0  0  0  0  0
  1  2  1  0      
  1 22  1  0      
  2  3  1  0      
  2  7  2  0      
  3  4  2  0      
  3 23  1  0      
  4  5  1  0      
  4 24  1  0      
  5  6  2  0      
  5  8  1  0      
  6  7  1  0      
  6 25  1  0      
  7 26  1  0      
  9  8  2  0      
  8 21  1  0      
  9 10  1  0      
 11  9  1  0      
 10 27  1  0      
 11 12  2  0      
 11 13  1  0      
 13 14  2  0      
 20 13  1  0      
 14 15  1  0      
 14 16  1  0      
 15 28  1  0      
 16 17  2  0      
 16 29  1  0      
 17 18  1  0      
 17 19  1  0      
 18 30  1  0      
 20 19  2  0      
 19 31  1  0      
 21 20  1  0      
M  END
