
  Chem3D Core 15.003291616353D

  0  0  0     0  0              0 V3000
M  V30 BEGIN CTAB
M  V30 COUNTS 31 34 0 0 0
M  V30 BEGIN ATOM
M  V30 1 O -0.927726 -3.559405 -1.113029 0
M  V30 2 C -0.955134 -2.478663 -0.581615 0
M  V30 3 N -2.137409 -1.835519 -0.449678 0
M  V30 4 C -2.569728 -0.601676 -0.122982 0
M  V30 5 C -3.917518 -0.554229 -0.073003 0
M  V30 6 C -4.585800 0.575737 0.187417 0
M  V30 7 C -3.886952 1.698404 0.380800 0
M  V30 8 C -2.548259 1.660141 0.313996 0
M  V30 9 C -1.851379 0.525546 0.074730 0
M  V30 10 C -0.507535 0.608640 0.016202 0
M  V30 11 N 0.135006 1.709912 0.040208 0
M  V30 12 C 1.390792 1.571374 -0.010925 0
M  V30 13 C 1.632188 0.259213 -0.059592 0
M  V30 14 C 2.894022 -0.191058 -0.095677 0
M  V30 15 C 3.891118 0.713195 -0.099672 0
M  V30 16 Br 5.687591 0.114785 -0.155387 0
M  V30 17 C 3.634743 2.034594 -0.060994 0
M  V30 18 C 2.368568 2.482702 -0.012613 0
M  V30 19 C 0.434845 -0.352966 -0.037560 0
M  V30 20 C 0.262111 -1.834793 0.032391 0
M  V30 21 H -2.919894 -2.437899 -0.664624 0
M  V30 22 H -4.520367 -1.462580 -0.252813 0
M  V30 23 H -5.687591 0.586358 0.227819 0
M  V30 24 H -4.414092 2.645030 0.588759 0
M  V30 25 H -2.061518 2.632699 0.488883 0
M  V30 26 H -0.298643 2.658815 0.086387 0
M  V30 27 H 3.107028 -1.270615 -0.120837 0
M  V30 28 H 4.456012 2.771002 -0.061461 0
M  V30 29 H 2.140078 3.559405 0.029103 0
M  V30 30 H 0.262866 -2.113814 1.113029 0
M  V30 31 H 1.147009 -2.333354 -0.425967 0
M  V30 END ATOM
M  V30 BEGIN BOND
M  V30 1 2 1 2
M  V30 2 1 2 3
M  V30 3 1 20 2
M  V30 4 1 3 4
M  V30 5 1 3 21
M  V30 6 1 4 5
M  V30 7 2 4 9
M  V30 8 2 5 6
M  V30 9 1 5 22
M  V30 10 1 6 7
M  V30 11 1 6 23
M  V30 12 2 7 8
M  V30 13 1 7 24
M  V30 14 1 8 9
M  V30 15 1 8 25
M  V30 16 1 10 9
M  V30 17 1 11 10
M  V30 18 2 10 19
M  V30 19 1 12 11
M  V30 20 1 11 26
M  V30 21 2 12 13
M  V30 22 1 18 12
M  V30 23 1 13 14
M  V30 24 1 19 13
M  V30 25 2 15 14
M  V30 26 1 14 27
M  V30 27 1 15 16
M  V30 28 1 15 17
M  V30 29 2 17 18
M  V30 30 1 17 28
M  V30 31 1 18 29
M  V30 32 1 19 20
M  V30 33 1 20 30
M  V30 34 1 20 31
M  V30 END BOND
M  V30 END CTAB
M  END
