
  Chem3D Core 15.008171513143D

 64 68  0  0  0  0  0  0  0  0999 V2000
   -4.9062   -1.1605    0.9388 C   0  0  0  0  0  0  0  0  0  0  0  0
   -5.1045   -2.6076    1.4169 C   0  0  0  0  0  0  0  0  0  0  0  0
   -3.7618   -0.9673    0.1216 O   0  0  0  0  0  0  0  0  0  0  0  0
    5.9425    4.7199   -0.6737 N   0  0  0  0  0  0  0  0  0  0  0  0
   -4.5901   -0.2531    1.9794 O   0  0  0  0  0  0  0  0  0  0  0  0
    3.6230    3.2476   -0.3370 N   0  0  0  0  0  0  0  0  0  0  0  0
   -5.8692   -2.9522    2.4770 C   0  0  0  0  0  0  0  0  0  0  0  0
   -6.4897   -1.5857   -0.9113 N   0  0  0  0  0  0  0  0  0  0  0  0
   -7.4601   -3.1034   -1.9340 N   0  0  0  0  0  0  0  0  0  0  0  0
    7.0596    4.7722    0.1272 C   0  0  0  0  0  0  0  0  0  0  0  0
   -6.1356   -0.6641    0.1769 C   0  0  0  0  0  0  0  0  0  0  0  0
   -4.5393   -3.6174    0.7237 C   0  0  0  0  0  0  0  0  0  0  0  0
   -7.3935   -2.4687   -0.8402 C   0  0  0  0  0  0  0  0  0  0  0  0
   -6.0225   -4.2395    2.8366 C   0  0  0  0  0  0  0  0  0  0  0  0
    2.6556    2.4859    0.0322 C   0  0  0  0  0  0  0  0  0  0  0  0
   -2.6542   -0.9236    0.9703 C   0  0  0  0  0  0  0  0  0  0  0  0
   -6.5761   -2.5802   -2.6789 C   0  0  0  0  0  0  0  0  0  0  0  0
    4.7440    5.5320   -0.5124 C   0  0  0  0  0  0  0  0  0  0  0  0
    5.7387    3.6951   -1.6875 C   0  0  0  0  0  0  0  0  0  0  0  0
    4.7383    2.6624   -1.1429 C   0  0  0  0  0  0  0  0  0  0  0  0
    3.6467    4.6674    0.1306 C   0  0  0  0  0  0  0  0  0  0  0  0
   -5.9293   -1.5897   -2.0452 C   0  0  0  0  0  0  0  0  0  0  0  0
    7.9838    4.0050    0.0074 O   0  0  0  0  0  0  0  0  0  0  0  0
   -3.2379   -0.4503    2.2830 C   0  0  0  0  0  0  0  0  0  0  0  0
    2.5807    1.1747   -0.2887 C   0  0  0  0  0  0  0  0  0  0  0  0
    1.6363    2.9098    0.8126 C   0  0  0  0  0  0  0  0  0  0  0  0
   -5.4266   -5.2201    2.1426 C   0  0  0  0  0  0  0  0  0  0  0  0
   -6.7176   -1.7909    3.4417 Cl  0  0  0  0  0  0  0  0  0  0  0  0
   -0.4828    0.0185    1.2299 O   0  0  0  0  0  0  0  0  0  0  0  0
   -4.6844   -4.9041    1.0733 C   0  0  0  0  0  0  0  0  0  0  0  0
    0.5232    0.8407    0.7952 C   0  0  0  0  0  0  0  0  0  0  0  0
   -1.5978   -0.0061    0.3769 C   0  0  0  0  0  0  0  0  0  0  0  0
    0.6221    2.1182    1.1964 C   0  0  0  0  0  0  0  0  0  0  0  0
    1.5690    0.3782    0.0917 C   0  0  0  0  0  0  0  0  0  0  0  0
   -5.6292   -6.8716    2.6050 Cl  0  0  0  0  0  0  0  0  0  0  0  0
    7.0804    5.8603    1.1902 C   0  0  0  0  0  0  0  0  0  0  0  0
   -2.2395   -1.9552    1.0724 H   0  0  0  0  0  0  0  0  0  0  0  0
   -6.9980   -0.5451    0.8715 H   0  0  0  0  0  0  0  0  0  0  0  0
   -5.9494    0.3554   -0.2359 H   0  0  0  0  0  0  0  0  0  0  0  0
   -3.9372   -3.4166   -0.1767 H   0  0  0  0  0  0  0  0  0  0  0  0
   -8.0095   -2.6450    0.0485 H   0  0  0  0  0  0  0  0  0  0  0  0
   -6.6482   -4.5040    3.7064 H   0  0  0  0  0  0  0  0  0  0  0  0
   -6.3897   -2.9191   -3.7064 H   0  0  0  0  0  0  0  0  0  0  0  0
    4.9094    6.4698    0.0601 H   0  0  0  0  0  0  0  0  0  0  0  0
    4.4018    5.8817   -1.5153 H   0  0  0  0  0  0  0  0  0  0  0  0
    6.6873    3.2086   -2.0085 H   0  0  0  0  0  0  0  0  0  0  0  0
    5.3316    4.1643   -2.6144 H   0  0  0  0  0  0  0  0  0  0  0  0
    4.3547    2.1155   -2.0376 H   0  0  0  0  0  0  0  0  0  0  0  0
    5.3116    1.9605   -0.4884 H   0  0  0  0  0  0  0  0  0  0  0  0
    3.8301    4.6691    1.2331 H   0  0  0  0  0  0  0  0  0  0  0  0
    2.6839    5.1875   -0.0914 H   0  0  0  0  0  0  0  0  0  0  0  0
   -5.1212   -0.9241   -2.3613 H   0  0  0  0  0  0  0  0  0  0  0  0
   -3.1506   -1.2206    3.0834 H   0  0  0  0  0  0  0  0  0  0  0  0
   -2.8138    0.5101    2.6496 H   0  0  0  0  0  0  0  0  0  0  0  0
    3.3571    0.6603   -0.8759 H   0  0  0  0  0  0  0  0  0  0  0  0
    1.5732    3.9371    1.2036 H   0  0  0  0  0  0  0  0  0  0  0  0
   -4.1982   -5.6907    0.4718 H   0  0  0  0  0  0  0  0  0  0  0  0
   -1.2820   -0.3835   -0.6238 H   0  0  0  0  0  0  0  0  0  0  0  0
   -2.0011    1.0270    0.2647 H   0  0  0  0  0  0  0  0  0  0  0  0
   -0.1651    2.5260    1.8543 H   0  0  0  0  0  0  0  0  0  0  0  0
    1.5852   -0.6898   -0.1875 H   0  0  0  0  0  0  0  0  0  0  0  0
    6.2254    5.7493    1.8944 H   0  0  0  0  0  0  0  0  0  0  0  0
    8.0095    5.7929    1.8003 H   0  0  0  0  0  0  0  0  0  0  0  0
    7.0738    6.8716    0.7247 H   0  0  0  0  0  0  0  0  0  0  0  0
  1  2  1  0      
  3  1  1  0      
  1  5  1  0      
  1 11  1  0      
  2  7  1  0      
  2 12  2  0      
 16  3  1  0      
  4 10  1  0      
  4 18  1  0      
  4 19  1  0      
 24  5  1  0      
  6 15  1  0      
  6 20  1  0      
 21  6  1  0      
  7 14  2  0      
  7 28  1  0      
  8 11  1  0      
  8 13  1  0      
 22  8  1  0      
 13  9  2  0      
 17  9  1  0      
 10 23  2  0      
 10 36  1  0      
 11 38  1  0      
 11 39  1  0      
 30 12  1  0      
 12 40  1  0      
 13 41  1  0      
 14 27  1  0      
 14 42  1  0      
 15 25  1  0      
 15 26  2  0      
 24 16  1  0      
 16 32  1  0      
 16 37  1  0      
 17 22  2  0      
 17 43  1  0      
 18 21  1  0      
 18 44  1  0      
 18 45  1  0      
 20 19  1  0      
 19 46  1  0      
 19 47  1  0      
 20 48  1  0      
 20 49  1  0      
 21 50  1  0      
 21 51  1  0      
 22 52  1  0      
 24 53  1  0      
 24 54  1  0      
 25 34  2  0      
 25 55  1  0      
 33 26  1  0      
 26 56  1  0      
 27 30  2  0      
 27 35  1  0      
 29 31  1  0      
 29 32  1  0      
 30 57  1  0      
 31 33  2  0      
 34 31  1  0      
 32 58  1  0      
 32 59  1  0      
 33 60  1  0      
 34 61  1  0      
 36 62  1  0      
 36 63  1  0      
 36 64  1  0      
M  END
