
  Chem3D Core 15.003181610233D

 52 55  0  0  0  0  0  0  0  0999 V2000
   -4.6650    0.7125   -2.4760 O   0  0  0  0  0  0  0  0  0  0  0  0
   -4.4854   -0.2536   -1.7873 C   0  0  0  0  0  0  0  0  0  0  0  0
   -3.7760   -0.2104   -0.6229 N   0  0  0  0  0  0  0  0  0  0  0  0
   -3.0210    0.7382   -0.0302 C   0  0  0  0  0  0  0  0  0  0  0  0
   -2.7066    1.9448   -0.5299 C   0  0  0  0  0  0  0  0  0  0  0  0
   -1.9339    2.7991    0.1596 C   0  0  0  0  0  0  0  0  0  0  0  0
   -1.4306    2.4916    1.3695 C   0  0  0  0  0  0  0  0  0  0  0  0
   -0.6348    3.3505    2.0841 O   0  0  0  0  0  0  0  0  0  0  0  0
    0.4373    3.8616    1.3976 C   0  0  0  0  0  0  0  0  0  0  0  0
    1.5564    3.1619    1.1035 C   0  0  0  0  0  0  0  0  0  0  0  0
    1.7261    1.8817    1.4738 C   0  0  0  0  0  0  0  0  0  0  0  0
    2.8088    1.1515    1.1477 C   0  0  0  0  0  0  0  0  0  0  0  0
    2.9214   -0.1421    1.5974 O   0  0  0  0  0  0  0  0  0  0  0  0
    2.3935   -1.0965    0.7038 C   0  0  0  0  0  0  0  0  0  0  0  0
    3.8367    1.7521    0.5062 C   0  0  0  0  0  0  0  0  0  0  0  0
    4.9585    1.0021    0.2350 O   0  0  0  0  0  0  0  0  0  0  0  0
    5.9801    1.5549   -0.5619 C   0  0  0  0  0  0  0  0  0  0  0  0
    3.6676    3.0369    0.1361 C   0  0  0  0  0  0  0  0  0  0  0  0
    2.5579    3.7437    0.4159 C   0  0  0  0  0  0  0  0  0  0  0  0
    2.4984    4.9489    0.0266 N   0  0  0  0  0  0  0  0  0  0  0  0
    1.4680    5.6276    0.2964 C   0  0  0  0  0  0  0  0  0  0  0  0
    0.4212    5.1385    0.9736 C   0  0  0  0  0  0  0  0  0  0  0  0
   -1.7649    1.2851    1.8628 C   0  0  0  0  0  0  0  0  0  0  0  0
   -2.5351    0.4196    1.1864 C   0  0  0  0  0  0  0  0  0  0  0  0
   -2.8202   -0.7544    1.7330 F   0  0  0  0  0  0  0  0  0  0  0  0
   -5.1064   -1.4097   -2.1521 N   0  0  0  0  0  0  0  0  0  0  0  0
   -4.9567   -2.7075   -1.8113 C   0  0  0  0  0  0  0  0  0  0  0  0
   -5.9320   -3.5193   -2.2632 C   0  0  0  0  0  0  0  0  0  0  0  0
   -5.9320   -4.8348   -2.0002 C   0  0  0  0  0  0  0  0  0  0  0  0
   -4.9396   -5.3747   -1.2789 C   0  0  0  0  0  0  0  0  0  0  0  0
   -4.9260   -6.6721   -1.0158 F   0  0  0  0  0  0  0  0  0  0  0  0
   -3.9518   -4.5780   -0.8444 C   0  0  0  0  0  0  0  0  0  0  0  0
   -3.9491   -3.2589   -1.1025 C   0  0  0  0  0  0  0  0  0  0  0  0
   -2.9144   -2.5580   -0.6705 F   0  0  0  0  0  0  0  0  0  0  0  0
   -3.8126   -1.0356   -0.0410 H   0  0  0  0  0  0  0  0  0  0  0  0
   -3.0556    2.2760   -1.5183 H   0  0  0  0  0  0  0  0  0  0  0  0
   -1.7041    3.7795   -0.2906 H   0  0  0  0  0  0  0  0  0  0  0  0
    0.9538    1.3683    2.0676 H   0  0  0  0  0  0  0  0  0  0  0  0
    2.5363   -2.1061    1.1496 H   0  0  0  0  0  0  0  0  0  0  0  0
    1.3054   -0.9159    0.5523 H   0  0  0  0  0  0  0  0  0  0  0  0
    2.9314   -1.0479   -0.2692 H   0  0  0  0  0  0  0  0  0  0  0  0
    6.7665    0.7778   -0.6914 H   0  0  0  0  0  0  0  0  0  0  0  0
    5.5858    1.8201   -1.5683 H   0  0  0  0  0  0  0  0  0  0  0  0
    6.4418    2.4288   -0.0505 H   0  0  0  0  0  0  0  0  0  0  0  0
    4.4668    3.5561   -0.4172 H   0  0  0  0  0  0  0  0  0  0  0  0
    1.4607    6.6721   -0.0584 H   0  0  0  0  0  0  0  0  0  0  0  0
   -0.4510    5.7815    1.1767 H   0  0  0  0  0  0  0  0  0  0  0  0
   -1.3900    0.9928    2.8583 H   0  0  0  0  0  0  0  0  0  0  0  0
   -5.8770   -1.2835   -2.7918 H   0  0  0  0  0  0  0  0  0  0  0  0
   -6.7665   -3.1086   -2.8583 H   0  0  0  0  0  0  0  0  0  0  0  0
   -6.7477   -5.4746   -2.3762 H   0  0  0  0  0  0  0  0  0  0  0  0
   -3.1204   -5.0207   -0.2704 H   0  0  0  0  0  0  0  0  0  0  0  0
  1  2  2  0      
  2  3  1  0      
  2 26  1  0      
  3  4  1  0      
  3 35  1  0      
  4  5  1  0      
  4 24  2  0      
  5  6  2  0      
  5 36  1  0      
  6  7  1  0      
  6 37  1  0      
  7  8  1  0      
  7 23  2  0      
  8  9  1  0      
  9 10  1  0      
 22  9  2  0      
 10 11  2  0      
 10 19  1  0      
 11 12  1  0      
 11 38  1  0      
 12 13  1  0      
 12 15  2  0      
 13 14  1  0      
 14 39  1  0      
 14 40  1  0      
 14 41  1  0      
 15 16  1  0      
 15 18  1  0      
 16 17  1  0      
 17 42  1  0      
 17 43  1  0      
 17 44  1  0      
 18 19  2  0      
 18 45  1  0      
 19 20  1  0      
 21 20  2  0      
 21 22  1  0      
 21 46  1  0      
 22 47  1  0      
 23 24  1  0      
 23 48  1  0      
 24 25  1  0      
 26 27  1  0      
 26 49  1  0      
 27 28  1  0      
 27 33  2  0      
 28 29  2  0      
 28 50  1  0      
 29 30  1  0      
 29 51  1  0      
 30 31  1  0      
 30 32  2  0      
 32 33  1  0      
 32 52  1  0      
 33 34  1  0      
M  END
