
  Chem3D Core 15.011061513433D

  0  0  0     0  0              0 V3000
M  V30 BEGIN CTAB
M  V30 COUNTS 83 85 0 0 0
M  V30 BEGIN ATOM
M  V30 1 O 1.069777 -1.525066 2.579981 0
M  V30 2 C 0.587853 -2.080025 1.131306 0
M  V30 3 N 1.220434 -1.952516 -0.185707 0
M  V30 4 C 0.660147 -1.042333 -1.210038 0
M  V30 5 C -0.056551 -1.693175 -2.400594 0
M  V30 6 O -0.753171 -0.693348 -3.106938 0
M  V30 7 C -1.482507 -1.217428 -4.196221 0
M  V30 8 C 1.969150 -3.072593 -0.792881 0
M  V30 9 C 3.200345 -2.618770 -1.583837 0
M  V30 10 O 3.921817 -3.757154 -1.989805 0
M  V30 11 C 5.079013 -3.422062 -2.725786 0
M  V30 12 C -0.814398 -2.937223 0.724843 0
M  V30 13 C -1.914045 -3.630411 1.610165 0
M  V30 14 C -1.563252 -4.280459 2.748428 0
M  V30 15 C -0.263950 -4.186037 3.128740 0
M  V30 16 C 0.296113 -3.053700 2.645356 0
M  V30 17 C 1.816104 -3.050413 2.234392 0
M  V30 18 C 2.470120 -1.780391 1.583962 0
M  V30 19 C 1.615590 -0.438050 1.333327 0
M  V30 20 O 2.333624 0.604608 0.799914 0
M  V30 21 C 1.744923 1.869532 0.675514 0
M  V30 22 C 2.774744 2.832674 0.075590 0
M  V30 23 N 2.379057 4.237073 0.143720 0
M  V30 24 C 3.413456 5.114631 -0.390038 0
M  V30 25 C 3.512459 5.064649 -1.915270 0
M  V30 26 O 2.270119 5.354678 -2.503616 0
M  V30 27 C 1.271205 4.469518 -2.065147 0
M  V30 28 C 1.134249 4.543066 -0.546171 0
M  V30 29 C 0.058753 -0.391009 1.775756 0
M  V30 30 O -0.654823 0.766339 1.599891 0
M  V30 31 C -2.010998 0.782221 1.972635 0
M  V30 32 C -0.614820 -1.688874 2.454760 0
M  V30 33 O 0.359668 -5.011374 3.760929 0
M  V30 34 C -2.414817 -5.071457 3.421345 0
M  V30 35 O -2.081257 -5.768670 4.542050 0
M  V30 36 C -3.677217 -5.095272 2.980070 0
M  V30 37 C -4.096612 -4.422239 1.897459 0
M  V30 38 O -5.406932 -4.575287 1.566209 0
M  V30 39 C -3.202875 -3.708726 1.173718 0
M  V30 40 C -3.584396 -2.985001 -0.120782 0
M  V30 41 C -4.978616 -3.066593 -0.756321 0
M  V30 42 H -0.074057 -0.347144 -0.744723 0
M  V30 43 H 1.473778 -0.388218 -1.601722 0
M  V30 44 H 0.668901 -2.171994 -3.095989 0
M  V30 45 H -0.786135 -2.460588 -2.061778 0
M  V30 46 H -1.991370 -0.370362 -4.708254 0
M  V30 47 H -0.796691 -1.712749 -4.918852 0
M  V30 48 H -2.255603 -1.931786 -3.834860 0
M  V30 49 H 2.307465 -3.802516 -0.025589 0
M  V30 50 H 1.305478 -3.680131 -1.448214 0
M  V30 51 H 2.908566 -2.040314 -2.488217 0
M  V30 52 H 3.855555 -1.979671 -0.950569 0
M  V30 53 H 5.593601 -4.368110 -3.006553 0
M  V30 54 H 4.801840 -2.876726 -3.655205 0
M  V30 55 H 5.769431 -2.810858 -2.103050 0
M  V30 56 H -1.317546 -2.189250 0.074070 0
M  V30 57 H -0.482940 -3.774171 0.061244 0
M  V30 58 H 2.436774 -3.950769 2.385107 0
M  V30 59 H 3.544347 -1.794761 1.328911 0
M  V30 60 H 0.874563 1.786596 -0.012651 0
M  V30 61 H 1.441762 2.231093 1.685187 0
M  V30 62 H 3.722320 2.705325 0.654667 0
M  V30 63 H 2.998505 2.506406 -0.965117 0
M  V30 64 H 3.190539 6.166614 -0.085761 0
M  V30 65 H 4.404487 4.881054 0.065776 0
M  V30 66 H 4.235403 5.833403 -2.276109 0
M  V30 67 H 3.877280 4.082167 -2.288614 0
M  V30 68 H 0.317306 4.781027 -2.551664 0
M  V30 69 H 1.497935 3.440792 -2.423434 0
M  V30 70 H 0.813666 5.578199 -0.272784 0
M  V30 71 H 0.300232 3.895368 -0.195024 0
M  V30 72 H -2.418159 1.788194 1.725282 0
M  V30 73 H -2.579589 0.024650 1.388932 0
M  V30 74 H -2.112214 0.627765 3.069718 0
M  V30 75 H -1.656378 -1.635106 2.819748 0
M  V30 76 H -2.882346 -6.166614 4.918852 0
M  V30 77 H -4.408606 -5.704478 3.539200 0
M  V30 78 H -5.570053 -4.318954 0.651668 0
M  V30 79 H -3.413740 -1.893752 0.054443 0
M  V30 80 H -2.891423 -3.344801 -0.921499 0
M  V30 81 H -5.016845 -2.452326 -1.686717 0
M  V30 82 H -5.235256 -4.104730 -1.069052 0
M  V30 83 H -5.769431 -2.654363 -0.088811 0
M  V30 END ATOM
M  V30 BEGIN BOND
M  V30 1 2 1 2
M  V30 2 1 2 3
M  V30 3 1 2 12
M  V30 4 1 3 4
M  V30 5 1 3 8
M  V30 6 1 4 5
M  V30 7 1 4 42
M  V30 8 1 4 43
M  V30 9 1 5 6
M  V30 10 1 5 44
M  V30 11 1 5 45
M  V30 12 1 6 7
M  V30 13 1 7 46
M  V30 14 1 7 47
M  V30 15 1 7 48
M  V30 16 1 8 9
M  V30 17 1 8 49
M  V30 18 1 8 50
M  V30 19 1 9 10
M  V30 20 1 9 51
M  V30 21 1 9 52
M  V30 22 1 10 11
M  V30 23 1 11 53
M  V30 24 1 11 54
M  V30 25 1 11 55
M  V30 26 1 12 13
M  V30 27 1 12 56
M  V30 28 1 12 57
M  V30 29 1 13 14
M  V30 30 2 13 39
M  V30 31 1 14 15
M  V30 32 2 14 34
M  V30 33 1 15 16
M  V30 34 2 15 33
M  V30 35 1 16 17
M  V30 36 2 16 32
M  V30 37 2 17 18
M  V30 38 1 17 58
M  V30 39 1 18 19
M  V30 40 1 18 59
M  V30 41 1 19 20
M  V30 42 2 19 29
M  V30 43 1 20 21
M  V30 44 1 21 22
M  V30 45 1 21 60
M  V30 46 1 21 61
M  V30 47 1 22 23
M  V30 48 1 22 62
M  V30 49 1 22 63
M  V30 50 1 23 24
M  V30 51 1 23 28
M  V30 52 1 24 25
M  V30 53 1 24 64
M  V30 54 1 24 65
M  V30 55 1 25 26
M  V30 56 1 25 66
M  V30 57 1 25 67
M  V30 58 1 26 27
M  V30 59 1 27 28
M  V30 60 1 27 68
M  V30 61 1 27 69
M  V30 62 1 28 70
M  V30 63 1 28 71
M  V30 64 1 29 30
M  V30 65 1 29 32
M  V30 66 1 30 31
M  V30 67 1 31 72
M  V30 68 1 31 73
M  V30 69 1 31 74
M  V30 70 1 32 75
M  V30 71 1 34 35
M  V30 72 1 34 36
M  V30 73 1 35 76
M  V30 74 2 36 37
M  V30 75 1 36 77
M  V30 76 1 37 38
M  V30 77 1 37 39
M  V30 78 1 38 78
M  V30 79 1 39 40
M  V30 80 1 40 41
M  V30 81 1 40 79
M  V30 82 1 40 80
M  V30 83 1 41 81
M  V30 84 1 41 82
M  V30 85 1 41 83
M  V30 END BOND
M  V30 END CTAB
M  END
