
  Chem3D Core 15.010021516183D

 39 41  0  0  0  0  0  0  0  0999 V2000
   -0.1801    1.0688    0.4421 S   0  0  0  0  0  0  0  0  0  0  0  0
    6.7750   -3.0929    0.0841 F   0  0  0  0  0  0  0  0  0  0  0  0
    7.0148   -1.1778   -0.7315 F   0  0  0  0  0  0  0  0  0  0  0  0
    6.8408   -2.8556   -1.9962 F   0  0  0  0  0  0  0  0  0  0  0  0
    4.5484   -1.3231   -1.9685 O   0  0  0  0  0  0  0  0  0  0  0  0
    0.6976    0.4868    1.4520 O   0  0  0  0  0  0  0  0  0  0  0  0
   -2.6627    2.0320   -0.0274 N   0  0  0  0  0  0  0  0  0  0  0  0
   -2.5548    0.8886    1.7300 N   0  0  0  0  0  0  0  0  0  0  0  0
    0.5670   -0.5520   -2.2620 N   0  0  0  0  0  0  0  0  0  0  0  0
   -1.9161    1.3500    0.7363 C   0  0  0  0  0  0  0  0  0  0  0  0
   -3.8103    1.9981    0.5047 C   0  0  0  0  0  0  0  0  0  0  0  0
   -3.7567    1.2708    1.6292 C   0  0  0  0  0  0  0  0  0  0  0  0
    1.3240    0.2649   -1.6582 C   0  0  0  0  0  0  0  0  0  0  0  0
    2.6542    0.0714   -1.5226 C   0  0  0  0  0  0  0  0  0  0  0  0
    0.5745    1.4681   -1.1212 C   0  0  0  0  0  0  0  0  0  0  0  0
    3.2032   -1.0625   -2.0146 C   0  0  0  0  0  0  0  0  0  0  0  0
   -4.9642    2.5522    0.1118 C   0  0  0  0  0  0  0  0  0  0  0  0
   -4.8290    1.0660    2.4004 C   0  0  0  0  0  0  0  0  0  0  0  0
    2.3797   -1.8749   -2.7011 C   0  0  0  0  0  0  0  0  0  0  0  0
    1.0752   -1.5844   -2.7808 C   0  0  0  0  0  0  0  0  0  0  0  0
   -6.0525    2.3550    0.8770 C   0  0  0  0  0  0  0  0  0  0  0  0
   -5.9870    1.6230    2.0050 C   0  0  0  0  0  0  0  0  0  0  0  0
    6.4003   -2.3159   -0.8944 C   0  0  0  0  0  0  0  0  0  0  0  0
    4.9376   -2.1582   -0.9034 C   0  0  0  0  0  0  0  0  0  0  0  0
    3.5096    1.0977   -0.8066 C   0  0  0  0  0  0  0  0  0  0  0  0
   -2.1621    0.2989    2.4982 H   0  0  0  0  0  0  0  0  0  0  0  0
   -0.2234    1.7830   -1.8327 H   0  0  0  0  0  0  0  0  0  0  0  0
    1.2307    2.3556   -0.9926 H   0  0  0  0  0  0  0  0  0  0  0  0
   -5.0166    3.1511   -0.8114 H   0  0  0  0  0  0  0  0  0  0  0  0
   -4.7613    0.4649    3.3206 H   0  0  0  0  0  0  0  0  0  0  0  0
    2.7721   -2.7832   -3.1873 H   0  0  0  0  0  0  0  0  0  0  0  0
    0.3862   -2.2555   -3.3206 H   0  0  0  0  0  0  0  0  0  0  0  0
   -7.0148    2.8016    0.5739 H   0  0  0  0  0  0  0  0  0  0  0  0
   -6.8948    1.4770    2.6145 H   0  0  0  0  0  0  0  0  0  0  0  0
    4.5952   -1.7072    0.0576 H   0  0  0  0  0  0  0  0  0  0  0  0
    4.4438   -3.1511   -1.0239 H   0  0  0  0  0  0  0  0  0  0  0  0
    3.0817    1.3568    0.1872 H   0  0  0  0  0  0  0  0  0  0  0  0
    4.5482    0.7616   -0.6018 H   0  0  0  0  0  0  0  0  0  0  0  0
    3.5883    2.0237   -1.4201 H   0  0  0  0  0  0  0  0  0  0  0  0
  1  6  2  0      
  1 10  1  0      
  1 15  1  0      
  2 23  1  0      
  3 23  1  0      
  4 23  1  0      
  5 16  1  0      
  5 24  1  0      
 10  7  2  0      
  7 11  1  0      
  8 10  1  0      
  8 12  1  0      
  8 26  1  0      
 13  9  2  0      
  9 20  1  0      
 11 12  1  0      
 11 17  2  0      
 18 12  2  0      
 14 13  1  0      
 13 15  1  0      
 16 14  2  0      
 14 25  1  0      
 15 27  1  0      
 15 28  1  0      
 19 16  1  0      
 17 21  1  0      
 17 29  1  0      
 22 18  1  0      
 18 30  1  0      
 19 20  2  0      
 19 31  1  0      
 20 32  1  0      
 21 22  2  0      
 21 33  1  0      
 22 34  1  0      
 23 24  1  0      
 24 35  1  0      
 24 36  1  0      
 25 37  1  0      
 25 38  1  0      
 25 39  1  0      
M  END
