
  Chem3D Core 15.001061617083D

 56 59  0  0  0  0  0  0  0  0999 V2000
   -3.8431    1.2996    3.0204 S   0  0  0  0  0  0  0  0  0  0  0  0
    0.5375    0.8695    2.5145 O   0  0  0  0  0  0  0  0  0  0  0  0
    3.1704   -1.1003    3.7994 O   0  0  0  0  0  0  0  0  0  0  0  0
    1.7270   -3.1904    1.8121 O   0  0  0  0  0  0  0  0  0  0  0  0
   -0.9285   -3.9098    1.8533 O   0  0  0  0  0  0  0  0  0  0  0  0
    1.3995   -0.4593   -0.0090 O   0  0  0  0  0  0  0  0  0  0  0  0
   -2.6889   -2.7330    1.3272 O   0  0  0  0  0  0  0  0  0  0  0  0
    4.9368    2.4727   -0.9855 O   0  0  0  0  0  0  0  0  0  0  0  0
    4.1521    2.2198    1.1324 O   0  0  0  0  0  0  0  0  0  0  0  0
    6.9047   -2.6889   -3.3030 O   0  0  0  0  0  0  0  0  0  0  0  0
    0.3331   -1.4622    2.5303 N   0  0  0  0  0  0  0  0  0  0  0  0
    3.0039   -0.1895    1.5777 N   0  0  0  0  0  0  0  0  0  0  0  0
   -6.4452    2.0582    2.5460 N   0  0  0  0  0  0  0  0  0  0  0  0
   -6.0136    0.2384    1.6931 N   0  0  0  0  0  0  0  0  0  0  0  0
   -7.4724    1.6924    1.9794 N   0  0  0  0  0  0  0  0  0  0  0  0
   -7.2010    0.5809    1.4640 N   0  0  0  0  0  0  0  0  0  0  0  0
    2.3414   -0.8857    2.6841 C   0  0  0  0  0  0  0  0  0  0  0  0
    0.9669   -0.2974    3.1378 C   0  0  0  0  0  0  0  0  0  0  0  0
    1.5032   -2.1040    2.2678 C   0  0  0  0  0  0  0  0  0  0  0  0
   -0.9811   -1.5513    2.2408 C   0  0  0  0  0  0  0  0  0  0  0  0
   -1.6278   -0.3619    2.3648 C   0  0  0  0  0  0  0  0  0  0  0  0
   -0.8666    0.9327    2.6816 C   0  0  0  0  0  0  0  0  0  0  0  0
    2.4747   -0.0262    0.3262 C   0  0  0  0  0  0  0  0  0  0  0  0
   -3.1254   -0.1445    2.1709 C   0  0  0  0  0  0  0  0  0  0  0  0
   -1.5621   -2.7107    1.7872 C   0  0  0  0  0  0  0  0  0  0  0  0
    4.3569   -1.7907    3.4810 C   0  0  0  0  0  0  0  0  0  0  0  0
    3.3701    0.7486   -0.6399 C   0  0  0  0  0  0  0  0  0  0  0  0
    4.3124   -0.1910   -1.3618 C   0  0  0  0  0  0  0  0  0  0  0  0
    4.1742    1.8929   -0.0334 C   0  0  0  0  0  0  0  0  0  0  0  0
    4.2722   -0.3230   -2.6987 C   0  0  0  0  0  0  0  0  0  0  0  0
    5.2365   -0.8939   -0.6851 C   0  0  0  0  0  0  0  0  0  0  0  0
   -5.5387    1.1862    2.3891 C   0  0  0  0  0  0  0  0  0  0  0  0
    5.1223   -1.1438   -3.3338 C   0  0  0  0  0  0  0  0  0  0  0  0
    6.0823   -1.7150   -1.3255 C   0  0  0  0  0  0  0  0  0  0  0  0
    6.0419   -1.8560   -2.6610 C   0  0  0  0  0  0  0  0  0  0  0  0
   -6.2115    3.2890    3.3119 C   0  0  0  0  0  0  0  0  0  0  0  0
    0.8257   -0.2699    4.2413 H   0  0  0  0  0  0  0  0  0  0  0  0
   -0.0675   -3.8559    2.2842 H   0  0  0  0  0  0  0  0  0  0  0  0
    4.8472    2.0047   -1.8325 H   0  0  0  0  0  0  0  0  0  0  0  0
    7.4724   -3.1276   -2.6488 H   0  0  0  0  0  0  0  0  0  0  0  0
    3.8906    0.2705    1.7827 H   0  0  0  0  0  0  0  0  0  0  0  0
   -1.2011    1.7379    1.9865 H   0  0  0  0  0  0  0  0  0  0  0  0
   -1.0756    1.2504    3.7291 H   0  0  0  0  0  0  0  0  0  0  0  0
   -3.6882   -1.0122    2.5866 H   0  0  0  0  0  0  0  0  0  0  0  0
   -3.3028   -0.0502    1.0731 H   0  0  0  0  0  0  0  0  0  0  0  0
    4.8986   -1.9930    4.4317 H   0  0  0  0  0  0  0  0  0  0  0  0
    4.1260   -2.7594    2.9876 H   0  0  0  0  0  0  0  0  0  0  0  0
    5.0079   -1.1647    2.8329 H   0  0  0  0  0  0  0  0  0  0  0  0
    2.6766    1.2438   -1.3626 H   0  0  0  0  0  0  0  0  0  0  0  0
    3.5370    0.2465   -3.2908 H   0  0  0  0  0  0  0  0  0  0  0  0
    5.3132   -0.7980    0.4096 H   0  0  0  0  0  0  0  0  0  0  0  0
    5.0686   -1.2365   -4.4317 H   0  0  0  0  0  0  0  0  0  0  0  0
    6.8301   -2.2818   -0.7456 H   0  0  0  0  0  0  0  0  0  0  0  0
   -5.4183    3.9098    2.8365 H   0  0  0  0  0  0  0  0  0  0  0  0
   -7.1403    3.9029    3.3433 H   0  0  0  0  0  0  0  0  0  0  0  0
   -5.9298    3.0586    4.3645 H   0  0  0  0  0  0  0  0  0  0  0  0
  1 24  1  0      
  1 32  1  0      
 18  2  1  0      
  2 22  1  0      
  3 17  1  0      
  3 26  1  0      
  4 19  2  0      
  5 25  1  0      
  5 38  1  0      
  6 23  2  0      
  7 25  2  0      
  8 29  1  0      
  8 39  1  0      
  9 29  2  0      
 10 35  1  0      
 10 40  1  0      
 18 11  1  0      
 11 19  1  0      
 20 11  1  0      
 17 12  1  0      
 12 23  1  0      
 12 41  1  0      
 13 15  1  0      
 13 32  1  0      
 13 36  1  0      
 14 16  1  0      
 32 14  2  0      
 16 15  2  0      
 17 18  1  0      
 17 19  1  0      
 18 37  1  0      
 21 20  2  0      
 20 25  1  0      
 22 21  1  0      
 21 24  1  0      
 22 42  1  0      
 22 43  1  0      
 23 27  1  0      
 24 44  1  0      
 24 45  1  0      
 26 46  1  0      
 26 47  1  0      
 26 48  1  0      
 27 28  1  0      
 27 29  1  0      
 27 49  1  0      
 28 30  1  0      
 28 31  2  0      
 30 33  2  0      
 30 50  1  0      
 34 31  1  0      
 31 51  1  0      
 33 35  1  0      
 33 52  1  0      
 35 34  2  0      
 34 53  1  0      
 36 54  1  0      
 36 55  1  0      
 36 56  1  0      
M  END
