
  Chem3D Core 15.003181615033D

 68 71  0  0  0  0  0  0  0  0999 V2000
   -0.9968    2.9955    1.2610 C   0  0  0  0  0  0  0  0  0  0  0  0
   -0.8002    2.6558   -0.2259 C   0  0  0  0  0  0  0  0  0  0  0  0
    0.0341    3.2767   -0.6322 H   0  0  0  0  0  0  0  0  0  0  0  0
   -2.0348    2.9630   -0.9520 N   0  0  0  0  0  0  0  0  0  0  0  0
   -1.9464    2.7551   -2.3959 C   0  0  0  0  0  0  0  0  0  0  0  0
   -0.4696    1.1793   -0.3745 C   0  0  0  0  0  0  0  0  0  0  0  0
    0.7554    0.9161   -0.9268 N   0  0  0  0  0  0  0  0  0  0  0  0
    1.2757   -0.4475   -1.0888 C   0  0  0  0  0  0  0  0  0  0  0  0
    0.4113   -1.0539   -1.4668 H   0  0  0  0  0  0  0  0  0  0  0  0
    2.3141   -0.5289   -2.2298 C   0  0  0  0  0  0  0  0  0  0  0  0
    2.6373   -1.9776   -2.6439 C   0  0  0  0  0  0  0  0  0  0  0  0
    3.5812   -2.0145   -3.8554 C   0  0  0  0  0  0  0  0  0  0  0  0
    4.8788   -1.2498   -3.5600 C   0  0  0  0  0  0  0  0  0  0  0  0
    4.5735    0.1929   -3.1345 C   0  0  0  0  0  0  0  0  0  0  0  0
    3.6220    0.2189   -1.9287 C   0  0  0  0  0  0  0  0  0  0  0  0
    1.6623   -1.1446    0.2267 C   0  0  0  0  0  0  0  0  0  0  0  0
    2.0251   -0.3652    1.3057 N   0  0  0  0  0  0  0  0  0  0  0  0
    1.9934   -0.8626    2.6844 C   0  0  0  0  0  0  0  0  0  0  0  0
    2.3007   -1.9333    2.7534 H   0  0  0  0  0  0  0  0  0  0  0  0
    0.5648   -0.7385    3.1878 C   0  0  0  0  0  0  0  0  0  0  0  0
   -0.3529   -1.1733    2.4374 N   0  0  0  0  0  0  0  0  0  0  0  0
   -1.4983   -0.9256    2.9081 C   0  0  0  0  0  0  0  0  0  0  0  0
   -2.7370   -1.1731    2.3719 C   0  0  0  0  0  0  0  0  0  0  0  0
   -2.9595   -1.9297    1.2459 C   0  0  0  0  0  0  0  0  0  0  0  0
   -2.0209   -2.6359    0.5812 C   0  0  0  0  0  0  0  0  0  0  0  0
   -2.2984   -3.3435   -0.5262 C   0  0  0  0  0  0  0  0  0  0  0  0
   -3.5440   -3.3844   -1.0159 C   0  0  0  0  0  0  0  0  0  0  0  0
   -3.8234   -4.0807   -2.1055 F   0  0  0  0  0  0  0  0  0  0  0  0
   -4.5025   -2.7117   -0.3662 C   0  0  0  0  0  0  0  0  0  0  0  0
   -4.2109   -2.0068    0.7387 C   0  0  0  0  0  0  0  0  0  0  0  0
   -3.6773   -0.6767    2.9665 O   0  0  0  0  0  0  0  0  0  0  0  0
   -1.3127   -0.2670    4.0715 C   0  0  0  0  0  0  0  0  0  0  0  0
    0.1013   -0.0874    4.4141 S   0  0  0  0  0  0  0  0  0  0  0  0
    3.0456   -0.0061    3.4101 C   0  0  0  0  0  0  0  0  0  0  0  0
    2.8654    1.3605    2.7428 C   0  0  0  0  0  0  0  0  0  0  0  0
    2.5958    0.9803    1.2773 C   0  0  0  0  0  0  0  0  0  0  0  0
    1.5765   -2.3471    0.3162 O   0  0  0  0  0  0  0  0  0  0  0  0
   -1.2325    0.3221   -0.0090 O   0  0  0  0  0  0  0  0  0  0  0  0
   -1.8475    2.4278    1.7030 H   0  0  0  0  0  0  0  0  0  0  0  0
   -1.2085    4.0807    1.3974 H   0  0  0  0  0  0  0  0  0  0  0  0
   -0.0861    2.7528    1.8543 H   0  0  0  0  0  0  0  0  0  0  0  0
   -2.8099    2.3647   -0.5703 H   0  0  0  0  0  0  0  0  0  0  0  0
   -2.9078    3.0534   -2.8724 H   0  0  0  0  0  0  0  0  0  0  0  0
   -1.1325    3.3713   -2.8413 H   0  0  0  0  0  0  0  0  0  0  0  0
   -1.7684    1.6833   -2.6376 H   0  0  0  0  0  0  0  0  0  0  0  0
    1.3497    1.7031   -1.1867 H   0  0  0  0  0  0  0  0  0  0  0  0
    1.8463   -0.0314   -3.1188 H   0  0  0  0  0  0  0  0  0  0  0  0
    3.1226   -2.5157   -1.7967 H   0  0  0  0  0  0  0  0  0  0  0  0
    1.6981   -2.5270   -2.8919 H   0  0  0  0  0  0  0  0  0  0  0  0
    3.8174   -3.0725   -4.1221 H   0  0  0  0  0  0  0  0  0  0  0  0
    3.0733   -1.5602   -4.7392 H   0  0  0  0  0  0  0  0  0  0  0  0
    5.4381   -1.7676   -2.7446 H   0  0  0  0  0  0  0  0  0  0  0  0
    5.5365   -1.2509   -4.4619 H   0  0  0  0  0  0  0  0  0  0  0  0
    5.5233    0.7219   -2.8807 H   0  0  0  0  0  0  0  0  0  0  0  0
    4.1106    0.7434   -3.9879 H   0  0  0  0  0  0  0  0  0  0  0  0
    4.1312   -0.2651   -1.0630 H   0  0  0  0  0  0  0  0  0  0  0  0
    3.4042    1.2790   -1.6583 H   0  0  0  0  0  0  0  0  0  0  0  0
   -0.9755   -2.7115    0.8969 H   0  0  0  0  0  0  0  0  0  0  0  0
   -1.4992   -3.9069   -1.0378 H   0  0  0  0  0  0  0  0  0  0  0  0
   -5.5365   -2.7378   -0.7499 H   0  0  0  0  0  0  0  0  0  0  0  0
   -5.0674   -1.4804    1.1924 H   0  0  0  0  0  0  0  0  0  0  0  0
   -2.0951    0.1199    4.7392 H   0  0  0  0  0  0  0  0  0  0  0  0
    4.0667   -0.3888    3.1666 H   0  0  0  0  0  0  0  0  0  0  0  0
    2.9524    0.0127    4.5176 H   0  0  0  0  0  0  0  0  0  0  0  0
    1.9813    1.8843    3.1764 H   0  0  0  0  0  0  0  0  0  0  0  0
    3.7516    2.0238    2.8663 H   0  0  0  0  0  0  0  0  0  0  0  0
    3.5684    0.9553    0.7370 H   0  0  0  0  0  0  0  0  0  0  0  0
    1.9396    1.7502    0.8241 H   0  0  0  0  0  0  0  0  0  0  0  0
  1  2  1  0      
  1 39  1  0      
  1 40  1  0      
  1 41  1  0      
  2  3  1  0      
  2  4  1  0      
  2  6  1  0      
  4  5  1  0      
  4 42  1  0      
  5 43  1  0      
  5 44  1  0      
  5 45  1  0      
  6  7  1  0      
  6 38  2  0      
  7  8  1  0      
  7 46  1  0      
  8  9  1  0      
  8 10  1  0      
  8 16  1  0      
 10 11  1  0      
 10 15  1  0      
 10 47  1  0      
 11 12  1  0      
 11 48  1  0      
 11 49  1  0      
 12 13  1  0      
 12 50  1  0      
 12 51  1  0      
 13 14  1  0      
 13 52  1  0      
 13 53  1  0      
 14 15  1  0      
 14 54  1  0      
 14 55  1  0      
 15 56  1  0      
 15 57  1  0      
 16 17  1  0      
 16 37  2  0      
 17 18  1  0      
 17 36  1  0      
 18 19  1  0      
 18 20  1  0      
 18 34  1  0      
 20 21  2  0      
 33 20  1  0      
 22 21  1  0      
 22 23  1  0      
 22 32  2  0      
 23 24  1  0      
 23 31  2  0      
 24 25  1  0      
 24 30  2  0      
 25 26  2  0      
 25 58  1  0      
 26 27  1  0      
 26 59  1  0      
 27 28  1  0      
 27 29  2  0      
 29 30  1  0      
 29 60  1  0      
 30 61  1  0      
 32 33  1  0      
 32 62  1  0      
 34 35  1  0      
 34 63  1  0      
 34 64  1  0      
 35 36  1  0      
 35 65  1  0      
 35 66  1  0      
 36 67  1  0      
 36 68  1  0      
M  END
