
  Chem3D Core 15.008141512273D

 53 58  0  0  0  0  0  0  0  0999 V2000
   -3.4514   -2.2310    1.3369 C   0  0  0  0  0  0  0  0  0  0  0  0
   -2.1536   -2.5700    1.4861 C   0  0  0  0  0  0  0  0  0  0  0  0
   -1.1328   -1.9385    0.8808 C   0  0  0  0  0  0  0  0  0  0  0  0
   -1.2951   -0.8898    0.0507 C   0  0  0  0  0  0  0  0  0  0  0  0
   -2.5884   -0.5472   -0.1083 C   0  0  0  0  0  0  0  0  0  0  0  0
   -3.6044   -1.1831    0.5003 C   0  0  0  0  0  0  0  0  0  0  0  0
   -0.2675   -0.2462   -0.5623 C   0  0  0  0  0  0  0  0  0  0  0  0
    1.0352   -0.5771   -0.4089 C   0  0  0  0  0  0  0  0  0  0  0  0
    2.0161    0.0011   -0.9641 N   0  0  0  0  0  0  0  0  0  0  0  0
   -0.4332    0.8061   -1.3933 C   0  0  0  0  0  0  0  0  0  0  0  0
    0.5661    1.3721   -1.9404 N   0  0  0  0  0  0  0  0  0  0  0  0
    1.7558    0.9679   -1.7341 C   0  0  0  0  0  0  0  0  0  0  0  0
    2.6007    1.7568   -2.4317 C   0  0  0  0  0  0  0  0  0  0  0  0
    1.7293    2.5928   -3.0252 C   0  0  0  0  0  0  0  0  0  0  0  0
    0.5325    2.3384   -2.7104 N   0  0  0  0  0  0  0  0  0  0  0  0
    3.9474    1.7102   -2.5606 C   0  0  0  0  0  0  0  0  0  0  0  0
   -4.4238   -2.8361    1.9168 N   0  0  0  0  0  0  0  0  0  0  0  0
   -4.2442   -4.0060    2.8281 C   0  0  0  0  0  0  0  0  0  0  0  0
   -5.0129   -5.1948    2.2311 C   0  0  0  0  0  0  0  0  0  0  0  0
   -6.4180   -4.8599    2.0040 N   0  0  0  0  0  0  0  0  0  0  0  0
   -6.5957   -3.6817    1.1566 C   0  0  0  0  0  0  0  0  0  0  0  0
   -5.8583   -2.4627    1.7316 C   0  0  0  0  0  0  0  0  0  0  0  0
    4.5441    0.5079   -2.4109 C   0  0  0  0  0  0  0  0  0  0  0  0
    5.8505    0.3121   -2.6318 C   0  0  0  0  0  0  0  0  0  0  0  0
    6.6133    1.3408   -3.0130 C   0  0  0  0  0  0  0  0  0  0  0  0
    4.7503    2.7551   -2.8937 C   0  0  0  0  0  0  0  0  0  0  0  0
    6.0700    2.5634   -3.1363 C   0  0  0  0  0  0  0  0  0  0  0  0
    6.8746    3.4899   -3.4622 N   0  0  0  0  0  0  0  0  0  0  0  0
    6.4612    4.6797   -3.5448 C   0  0  0  0  0  0  0  0  0  0  0  0
    5.1950    5.0208   -3.2822 C   0  0  0  0  0  0  0  0  0  0  0  0
    4.3471    4.0421   -2.9359 C   0  0  0  0  0  0  0  0  0  0  0  0
   -1.8294   -3.4034    2.1245 H   0  0  0  0  0  0  0  0  0  0  0  0
   -0.1372   -2.3459    1.1142 H   0  0  0  0  0  0  0  0  0  0  0  0
   -2.8916    0.2882   -0.7580 H   0  0  0  0  0  0  0  0  0  0  0  0
   -4.5890   -0.7652    0.2492 H   0  0  0  0  0  0  0  0  0  0  0  0
    1.3791   -1.4010    0.2342 H   0  0  0  0  0  0  0  0  0  0  0  0
   -1.3949    1.2608   -1.6672 H   0  0  0  0  0  0  0  0  0  0  0  0
    1.9263    3.3787   -3.7646 H   0  0  0  0  0  0  0  0  0  0  0  0
   -3.2098   -4.3288    3.0524 H   0  0  0  0  0  0  0  0  0  0  0  0
   -4.6826   -3.7460    3.8209 H   0  0  0  0  0  0  0  0  0  0  0  0
   -4.5445   -5.4998    1.2656 H   0  0  0  0  0  0  0  0  0  0  0  0
   -4.9579   -6.0740    2.9159 H   0  0  0  0  0  0  0  0  0  0  0  0
   -6.8939   -5.6795    1.5507 H   0  0  0  0  0  0  0  0  0  0  0  0
   -7.6864   -3.4654    1.0638 H   0  0  0  0  0  0  0  0  0  0  0  0
   -6.2157   -3.9028    0.1311 H   0  0  0  0  0  0  0  0  0  0  0  0
   -6.2859   -2.2123    2.7315 H   0  0  0  0  0  0  0  0  0  0  0  0
   -6.0827   -1.5820    1.1004 H   0  0  0  0  0  0  0  0  0  0  0  0
    3.9826   -0.4102   -2.1823 H   0  0  0  0  0  0  0  0  0  0  0  0
    6.2920   -0.6945   -2.5345 H   0  0  0  0  0  0  0  0  0  0  0  0
    7.6864    1.1666   -3.2052 H   0  0  0  0  0  0  0  0  0  0  0  0
    7.2029    5.4477   -3.8209 H   0  0  0  0  0  0  0  0  0  0  0  0
    4.8726    6.0740   -3.3256 H   0  0  0  0  0  0  0  0  0  0  0  0
    3.3399    4.3732   -2.6522 H   0  0  0  0  0  0  0  0  0  0  0  0
  1  2  1  0      
  1  6  2  0      
  1 17  1  0      
  2  3  2  0      
  2 32  1  0      
  3  4  1  0      
  3 33  1  0      
  4  5  2  0      
  4  7  1  0      
  5  6  1  0      
  5 34  1  0      
  6 35  1  0      
  7  8  1  0      
 10  7  2  0      
  8  9  2  0      
  8 36  1  0      
  9 12  1  0      
 10 11  1  0      
 10 37  1  0      
 12 11  1  0      
 15 11  1  0      
 12 13  2  0      
 13 14  1  0      
 13 16  1  0      
 14 15  2  0      
 14 38  1  0      
 16 23  1  0      
 26 16  2  0      
 17 18  1  0      
 17 22  1  0      
 18 19  1  0      
 18 39  1  0      
 18 40  1  0      
 19 20  1  0      
 19 41  1  0      
 19 42  1  0      
 20 21  1  0      
 20 43  1  0      
 21 22  1  0      
 21 44  1  0      
 21 45  1  0      
 22 46  1  0      
 22 47  1  0      
 23 24  2  0      
 23 48  1  0      
 24 25  1  0      
 24 49  1  0      
 25 27  2  0      
 25 50  1  0      
 26 27  1  0      
 31 26  1  0      
 27 28  1  0      
 29 28  2  0      
 29 30  1  0      
 29 51  1  0      
 30 31  2  0      
 30 52  1  0      
 31 53  1  0      
M  END
