
  Chem3D Core 15.003281610563D

 28 29  0  0  0  0  0  0  0  0999 V2000
    2.4481    4.3698   -0.3897 F   0  0  0  0  0  0  0  0  0  0  0  0
    0.6676    5.3888    0.2133 F   0  0  0  0  0  0  0  0  0  0  0  0
    0.9556    4.8588   -1.8324 F   0  0  0  0  0  0  0  0  0  0  0  0
    1.7148   -3.5059    1.0203 O   0  0  0  0  0  0  0  0  0  0  0  0
   -2.0533   -2.5059    0.0829 O   0  0  0  0  0  0  0  0  0  0  0  0
   -1.4503   -0.4227    0.3268 N   0  0  0  0  0  0  0  0  0  0  0  0
    1.9966   -2.3398    1.5706 N   0  0  0  0  0  0  0  0  0  0  0  0
    0.0644   -2.2088    0.7439 C   0  0  0  0  0  0  0  0  0  0  0  0
    0.4478    3.1173   -0.3937 C   0  0  0  0  0  0  0  0  0  0  0  0
    1.1413    4.4470   -0.5875 C   0  0  0  0  0  0  0  0  0  0  0  0
   -1.1647   -1.7500    0.3927 C   0  0  0  0  0  0  0  0  0  0  0  0
   -0.7551    0.7080    0.0897 C   0  0  0  0  0  0  0  0  0  0  0  0
    0.5775   -3.4387    0.5516 C   0  0  0  0  0  0  0  0  0  0  0  0
    1.0966    1.9575   -0.5989 C   0  0  0  0  0  0  0  0  0  0  0  0
   -0.8098    3.0482    0.0771 C   0  0  0  0  0  0  0  0  0  0  0  0
    0.5008    0.7739   -0.3829 C   0  0  0  0  0  0  0  0  0  0  0  0
   -1.4073    1.8661    0.2933 C   0  0  0  0  0  0  0  0  0  0  0  0
    1.0200   -1.5530    1.4187 C   0  0  0  0  0  0  0  0  0  0  0  0
   -0.0508   -4.6080   -0.1515 C   0  0  0  0  0  0  0  0  0  0  0  0
   -2.4280   -0.2066    0.4500 H   0  0  0  0  0  0  0  0  0  0  0  0
    2.1317    1.9675   -0.9790 H   0  0  0  0  0  0  0  0  0  0  0  0
   -1.3746    3.9727    0.2814 H   0  0  0  0  0  0  0  0  0  0  0  0
    1.0655   -0.1372   -0.6344 H   0  0  0  0  0  0  0  0  0  0  0  0
   -2.4481    1.8580    0.6612 H   0  0  0  0  0  0  0  0  0  0  0  0
    1.0097   -0.5380    1.8324 H   0  0  0  0  0  0  0  0  0  0  0  0
    0.7113   -5.3888   -0.3743 H   0  0  0  0  0  0  0  0  0  0  0  0
   -0.8343   -5.0727    0.4887 H   0  0  0  0  0  0  0  0  0  0  0  0
   -0.4975   -4.3039   -1.1246 H   0  0  0  0  0  0  0  0  0  0  0  0
  1 10  1  0      
  2 10  1  0      
  3 10  1  0      
  4  7  1  0      
 13  4  1  0      
  5 11  2  0      
  6 11  1  0      
  6 12  1  0      
  6 20  1  0      
  7 18  2  0      
  8 11  1  0      
 13  8  2  0      
 18  8  1  0      
  9 10  1  0      
  9 14  1  0      
  9 15  2  0      
 16 12  1  0      
 12 17  2  0      
 13 19  1  0      
 14 16  2  0      
 14 21  1  0      
 17 15  1  0      
 15 22  1  0      
 16 23  1  0      
 17 24  1  0      
 18 25  1  0      
 19 26  1  0      
 19 27  1  0      
 19 28  1  0      
M  END
