
  Chem3D Core 15.003291616403D

  0  0  0     0  0              0 V3000
M  V30 BEGIN CTAB
M  V30 COUNTS 44 47 0 0 0
M  V30 BEGIN ATOM
M  V30 1 C 3.113914 0.362184 0.995142 0
M  V30 2 C 3.465747 0.788460 2.219741 0
M  V30 3 C 2.378408 1.400668 2.699508 0
M  V30 4 C 1.466641 1.288196 1.721986 0
M  V30 5 O 1.945845 0.688485 0.757441 0
M  V30 6 C 3.867521 -0.330839 0.115488 0
M  V30 7 C 5.873487 -1.377520 -0.520467 0
M  V30 8 C 5.357490 -1.743714 -1.706866 0
M  V30 9 C 4.085917 -1.395128 -1.971900 0
M  V30 10 C 3.361500 -0.704044 -1.076722 0
M  V30 11 C 5.141407 -0.686740 0.368791 0
M  V30 12 C 0.207866 1.759694 1.804455 0
M  V30 13 C -0.795401 1.687404 0.904734 0
M  V30 14 C -2.025441 2.238866 1.177878 0
M  V30 15 C -2.383186 1.357152 -0.949021 0
M  V30 16 O -2.344405 2.817588 2.193410 0
M  V30 17 S -0.708476 1.022924 -0.416292 0
M  V30 18 S -3.014868 0.916480 -2.322431 0
M  V30 19 C 6.113405 -2.445928 -2.599880 0
M  V30 20 O 5.697178 -2.801118 -3.682316 0
M  V30 21 O 7.396462 -2.801720 -2.340373 0
M  V30 22 N -2.900255 2.046898 0.118376 0
M  V30 23 C -4.286107 2.516994 0.143341 0
M  V30 24 C -5.228352 1.358413 0.394597 0
M  V30 25 C -6.984062 -0.028868 -0.287580 0
M  V30 26 C -6.900120 -0.719153 0.859509 0
M  V30 27 C -5.984706 -0.371651 1.776334 0
M  V30 28 C -5.158683 0.659798 1.542220 0
M  V30 29 C -6.154273 1.001457 -0.514109 0
M  V30 30 H 4.415604 0.676242 2.754515 0
M  V30 31 H 2.269441 1.875681 3.682316 0
M  V30 32 H 6.910251 -1.632940 -0.242974 0
M  V30 33 H 3.598945 -1.663317 -2.924573 0
M  V30 34 H 2.324336 -0.453983 -1.359467 0
M  V30 35 H 5.634931 -0.423691 1.318063 0
M  V30 36 H -0.007486 2.274070 2.758816 0
M  V30 37 H 7.735684 -3.289579 -3.107898 0
M  V30 38 H -4.454650 3.289579 0.926666 0
M  V30 39 H -4.516943 3.035488 -0.815028 0
M  V30 40 H -7.735684 -0.309104 -1.044581 0
M  V30 41 H -7.580395 -1.566273 1.048255 0
M  V30 42 H -5.911630 -0.933979 2.722334 0
M  V30 43 H -4.413464 0.932345 2.307150 0
M  V30 44 H -6.239938 1.555465 -1.463467 0
M  V30 END ATOM
M  V30 BEGIN BOND
M  V30 1 2 1 2
M  V30 2 1 1 5
M  V30 3 1 1 6
M  V30 4 1 2 3
M  V30 5 1 2 30
M  V30 6 2 3 4
M  V30 7 1 3 31
M  V30 8 1 4 5
M  V30 9 1 4 12
M  V30 10 1 6 10
M  V30 11 2 6 11
M  V30 12 2 8 7
M  V30 13 1 7 11
M  V30 14 1 7 32
M  V30 15 1 9 8
M  V30 16 1 8 19
M  V30 17 2 10 9
M  V30 18 1 9 33
M  V30 19 1 10 34
M  V30 20 1 11 35
M  V30 21 2 12 13
M  V30 22 1 12 36
M  V30 23 1 13 14
M  V30 24 1 13 17
M  V30 25 2 14 16
M  V30 26 1 14 22
M  V30 27 1 15 17
M  V30 28 2 15 18
M  V30 29 1 15 22
M  V30 30 2 19 20
M  V30 31 1 19 21
M  V30 32 1 21 37
M  V30 33 1 22 23
M  V30 34 1 23 24
M  V30 35 1 23 38
M  V30 36 1 23 39
M  V30 37 1 24 28
M  V30 38 2 24 29
M  V30 39 2 26 25
M  V30 40 1 25 29
M  V30 41 1 25 40
M  V30 42 1 27 26
M  V30 43 1 26 41
M  V30 44 2 28 27
M  V30 45 1 27 42
M  V30 46 1 28 43
M  V30 47 1 29 44
M  V30 END BOND
M  V30 END CTAB
M  END
