
  Chem3D Core 15.010021516173D

 60 63  0  0  0  0  0  0  0  0999 V2000
    6.3120    3.1149   -0.5999 F   0  0  0  0  0  0  0  0  0  0  0  0
   -4.4584   -3.5181   -0.2457 O   0  0  0  0  0  0  0  0  0  0  0  0
   -6.1222   -2.0726   -0.1544 O   0  0  0  0  0  0  0  0  0  0  0  0
   -0.9477   -0.6261    0.0747 N   0  0  0  0  0  0  0  0  0  0  0  0
    3.3309   -2.9545   -2.3790 N   0  0  0  0  0  0  0  0  0  0  0  0
   -3.7938   -1.2655   -0.0378 C   0  0  0  0  0  0  0  0  0  0  0  0
   -2.9589   -1.4977    1.2176 C   0  0  0  0  0  0  0  0  0  0  0  0
   -4.4746    0.0639    0.0632 C   0  0  0  0  0  0  0  0  0  0  0  0
   -2.9086   -1.2821   -1.2801 C   0  0  0  0  0  0  0  0  0  0  0  0
   -4.8173   -2.3683   -0.1536 C   0  0  0  0  0  0  0  0  0  0  0  0
    2.3846   -0.8528   -1.1166 C   0  0  0  0  0  0  0  0  0  0  0  0
    0.0596    0.3916    0.2072 C   0  0  0  0  0  0  0  0  0  0  0  0
   -1.7731   -0.5371    1.2799 C   0  0  0  0  0  0  0  0  0  0  0  0
   -1.7246   -0.3290   -1.1294 C   0  0  0  0  0  0  0  0  0  0  0  0
    3.4332    0.2067   -0.9786 C   0  0  0  0  0  0  0  0  0  0  0  0
    1.9399   -1.2927    0.2756 C   0  0  0  0  0  0  0  0  0  0  0  0
    1.2198   -0.2929   -1.9287 C   0  0  0  0  0  0  0  0  0  0  0  0
    1.2243   -0.1682    1.0194 C   0  0  0  0  0  0  0  0  0  0  0  0
    0.5043    0.8316   -1.1850 C   0  0  0  0  0  0  0  0  0  0  0  0
   -4.4364    0.9506   -1.0128 C   0  0  0  0  0  0  0  0  0  0  0  0
   -5.1472    0.4158    1.2334 C   0  0  0  0  0  0  0  0  0  0  0  0
   -3.8365   -1.2822    2.4435 C   0  0  0  0  0  0  0  0  0  0  0  0
    2.9140   -2.0284   -1.8227 C   0  0  0  0  0  0  0  0  0  0  0  0
    3.8384    0.9366   -2.0960 C   0  0  0  0  0  0  0  0  0  0  0  0
    4.0051    0.4638    0.2673 C   0  0  0  0  0  0  0  0  0  0  0  0
   -5.0707    2.1893   -0.9186 C   0  0  0  0  0  0  0  0  0  0  0  0
   -5.7816    1.6545    1.3276 C   0  0  0  0  0  0  0  0  0  0  0  0
   -5.7433    2.5412    0.2516 C   0  0  0  0  0  0  0  0  0  0  0  0
    4.8155    1.9237   -1.9674 C   0  0  0  0  0  0  0  0  0  0  0  0
    4.9822    1.4510    0.3959 C   0  0  0  0  0  0  0  0  0  0  0  0
    5.3873    2.1808   -0.7215 C   0  0  0  0  0  0  0  0  0  0  0  0
   -6.1795   -1.1058   -0.0721 H   0  0  0  0  0  0  0  0  0  0  0  0
   -2.5671   -2.5391    1.1919 H   0  0  0  0  0  0  0  0  0  0  0  0
   -3.5142   -0.9713   -2.1607 H   0  0  0  0  0  0  0  0  0  0  0  0
   -2.5145   -2.3138   -1.4176 H   0  0  0  0  0  0  0  0  0  0  0  0
   -0.3413    1.2817    0.7419 H   0  0  0  0  0  0  0  0  0  0  0  0
   -1.1484   -0.7911    2.1653 H   0  0  0  0  0  0  0  0  0  0  0  0
   -2.1676    0.5008    1.3576 H   0  0  0  0  0  0  0  0  0  0  0  0
   -2.1065    0.7144   -1.0648 H   0  0  0  0  0  0  0  0  0  0  0  0
   -1.0604   -0.4539   -2.0138 H   0  0  0  0  0  0  0  0  0  0  0  0
    2.8360   -1.5988    0.8605 H   0  0  0  0  0  0  0  0  0  0  0  0
    1.2293   -2.1417    0.1617 H   0  0  0  0  0  0  0  0  0  0  0  0
    1.6100    0.1034   -2.8928 H   0  0  0  0  0  0  0  0  0  0  0  0
    0.4898   -1.1149   -2.1021 H   0  0  0  0  0  0  0  0  0  0  0  0
    1.9507    0.6509    1.2199 H   0  0  0  0  0  0  0  0  0  0  0  0
    0.8187   -0.5825    1.9694 H   0  0  0  0  0  0  0  0  0  0  0  0
   -0.3917    1.1378   -1.7699 H   0  0  0  0  0  0  0  0  0  0  0  0
    1.2150    1.6806   -1.0711 H   0  0  0  0  0  0  0  0  0  0  0  0
   -3.9061    0.6730   -1.9357 H   0  0  0  0  0  0  0  0  0  0  0  0
   -5.1773   -0.2835    2.0820 H   0  0  0  0  0  0  0  0  0  0  0  0
   -3.3972   -0.4806    3.0786 H   0  0  0  0  0  0  0  0  0  0  0  0
   -4.8577   -0.9804    2.1197 H   0  0  0  0  0  0  0  0  0  0  0  0
   -3.8958   -2.2275    3.0279 H   0  0  0  0  0  0  0  0  0  0  0  0
    3.3873    0.7339   -3.0786 H   0  0  0  0  0  0  0  0  0  0  0  0
    3.6855   -0.1118    1.1485 H   0  0  0  0  0  0  0  0  0  0  0  0
   -5.0405    2.8886   -1.7671 H   0  0  0  0  0  0  0  0  0  0  0  0
   -6.3120    1.9321    2.2504 H   0  0  0  0  0  0  0  0  0  0  0  0
   -6.2435    3.5181    0.3259 H   0  0  0  0  0  0  0  0  0  0  0  0
    5.1351    2.4993   -2.8486 H   0  0  0  0  0  0  0  0  0  0  0  0
    5.4331    1.6538    1.3785 H   0  0  0  0  0  0  0  0  0  0  0  0
  1 31  1  0      
  2 10  2  0      
  3 10  1  0      
  3 32  1  0      
 12  4  1  0      
  4 13  1  0      
  4 14  1  0      
  5 23  3  0      
  7  6  1  0      
  6  8  1  0      
  6  9  1  0      
  6 10  1  0      
 13  7  1  0      
  7 22  1  0      
  7 33  1  0      
  8 20  1  0      
  8 21  2  0      
  9 14  1  0      
  9 34  1  0      
  9 35  1  0      
 11 15  1  0      
 11 16  1  0      
 11 17  1  0      
 11 23  1  0      
 18 12  1  0      
 12 19  1  0      
 12 36  1  0      
 13 37  1  0      
 13 38  1  0      
 14 39  1  0      
 14 40  1  0      
 15 24  1  0      
 15 25  2  0      
 16 18  1  0      
 16 41  1  0      
 16 42  1  0      
 19 17  1  0      
 17 43  1  0      
 17 44  1  0      
 18 45  1  0      
 18 46  1  0      
 19 47  1  0      
 19 48  1  0      
 20 26  2  0      
 20 49  1  0      
 27 21  1  0      
 21 50  1  0      
 22 51  1  0      
 22 52  1  0      
 22 53  1  0      
 24 29  2  0      
 24 54  1  0      
 30 25  1  0      
 25 55  1  0      
 26 28  1  0      
 26 56  1  0      
 28 27  2  0      
 27 57  1  0      
 28 58  1  0      
 29 31  1  0      
 29 59  1  0      
 31 30  2  0      
 30 60  1  0      
M  END
