
  Chem3D Core 15.003291611193D

 35 36  0  0  0  0  0  0  0  0999 V2000
    5.0988    3.6021   -0.4502 O   0  0  0  0  0  0  0  0  0  0  0  0
    5.2564    2.3833   -1.0085 C   0  0  0  0  0  0  0  0  0  0  0  0
    6.0815    2.1114   -1.8520 O   0  0  0  0  0  0  0  0  0  0  0  0
    4.2507    1.3997   -0.4362 C   0  0  0  0  0  0  0  0  0  0  0  0
    4.6441    0.3667   -0.5948 H   0  0  0  0  0  0  0  0  0  0  0  0
    2.8762    1.5368   -1.1086 C   0  0  0  0  0  0  0  0  0  0  0  0
    1.8636    0.6357   -0.4346 C   0  0  0  0  0  0  0  0  0  0  0  0
    1.8508   -0.6853   -0.6700 C   0  0  0  0  0  0  0  0  0  0  0  0
    0.9620   -1.4875   -0.0626 C   0  0  0  0  0  0  0  0  0  0  0  0
    1.0768   -3.6021   -0.5437 I   0  0  0  0  0  0  0  0  0  0  0  0
    0.0398   -1.0091    0.8005 C   0  0  0  0  0  0  0  0  0  0  0  0
    0.0742    0.3196    1.0368 C   0  0  0  0  0  0  0  0  0  0  0  0
    0.9635    1.1248    0.4335 C   0  0  0  0  0  0  0  0  0  0  0  0
   -1.2991    1.2800    2.4157 I   0  0  0  0  0  0  0  0  0  0  0  0
   -0.8591   -1.8413    1.4186 O   0  0  0  0  0  0  0  0  0  0  0  0
   -2.1483   -1.8056    0.9520 C   0  0  0  0  0  0  0  0  0  0  0  0
   -3.1831   -1.8681    1.8105 C   0  0  0  0  0  0  0  0  0  0  0  0
   -4.4592   -1.8371    1.3963 C   0  0  0  0  0  0  0  0  0  0  0  0
   -6.0171   -1.9274    2.8994 I   0  0  0  0  0  0  0  0  0  0  0  0
   -4.7680   -1.7492    0.0895 C   0  0  0  0  0  0  0  0  0  0  0  0
   -3.7377   -1.6982   -0.7733 C   0  0  0  0  0  0  0  0  0  0  0  0
   -2.4631   -1.7274   -0.3546 C   0  0  0  0  0  0  0  0  0  0  0  0
   -4.1185   -1.5603   -2.8994 I   0  0  0  0  0  0  0  0  0  0  0  0
   -6.0577   -1.7193   -0.3458 O   0  0  0  0  0  0  0  0  0  0  0  0
    4.1191    1.5966    1.0154 N   0  0  0  0  0  0  0  0  0  0  0  0
    4.3989    3.5986    0.2212 H   0  0  0  0  0  0  0  0  0  0  0  0
    2.5394    2.5989   -1.0655 H   0  0  0  0  0  0  0  0  0  0  0  0
    2.9495    1.2775   -2.1907 H   0  0  0  0  0  0  0  0  0  0  0  0
    2.5907   -1.1041   -1.3720 H   0  0  0  0  0  0  0  0  0  0  0  0
    0.9690    2.2057    0.6494 H   0  0  0  0  0  0  0  0  0  0  0  0
   -2.9587   -1.9436    2.8879 H   0  0  0  0  0  0  0  0  0  0  0  0
   -1.6555   -1.6849   -1.1026 H   0  0  0  0  0  0  0  0  0  0  0  0
   -6.0815   -1.6696   -1.3147 H   0  0  0  0  0  0  0  0  0  0  0  0
    3.3209    1.0475    1.3810 H   0  0  0  0  0  0  0  0  0  0  0  0
    4.9501    1.2344    1.5147 H   0  0  0  0  0  0  0  0  0  0  0  0
  1  2  1  0      
  1 26  1  0      
  2  3  2  0      
  2  4  1  0      
  4  5  1  0      
  4  6  1  0      
  4 25  1  0      
  6  7  1  0      
  6 27  1  0      
  6 28  1  0      
  7  8  1  0      
  7 13  2  0      
  8  9  2  0      
  8 29  1  0      
  9 10  1  0      
  9 11  1  0      
 11 12  2  0      
 11 15  1  0      
 12 13  1  0      
 12 14  1  0      
 13 30  1  0      
 15 16  1  0      
 16 17  1  0      
 16 22  2  0      
 17 18  2  0      
 17 31  1  0      
 18 19  1  0      
 18 20  1  0      
 20 21  2  0      
 20 24  1  0      
 21 22  1  0      
 21 23  1  0      
 22 32  1  0      
 24 33  1  0      
 25 34  1  0      
 25 35  1  0      
M  END
