
  Chem3D Core 15.003141618043D

 55 58  0  0  0  0  0  0  0  0999 V2000
   -3.9672    1.8616    4.2225 N   0  0  0  0  0  0  0  0  0  0  0  0
   -3.0893    1.6709    3.0562 C   0  0  0  0  0  0  0  0  0  0  0  0
   -2.4339    0.7893    3.2564 H   0  0  0  0  0  0  0  0  0  0  0  0
   -2.2245    2.9085    2.8149 C   0  0  0  0  0  0  0  0  0  0  0  0
   -3.9493    1.4226    1.8206 C   0  0  0  0  0  0  0  0  0  0  0  0
   -4.6659    2.2638    1.6736 H   0  0  0  0  0  0  0  0  0  0  0  0
   -4.7150    0.2647    2.0564 O   0  0  0  0  0  0  0  0  0  0  0  0
   -3.0908    1.2518    0.5659 C   0  0  0  0  0  0  0  0  0  0  0  0
   -2.4813    0.3223    0.7116 H   0  0  0  0  0  0  0  0  0  0  0  0
   -3.9595    1.0563   -0.6898 C   0  0  0  0  0  0  0  0  0  0  0  0
   -2.1060    2.4305    0.3627 C   0  0  0  0  0  0  0  0  0  0  0  0
   -1.3472    2.6681    1.6293 N   0  0  0  0  0  0  0  0  0  0  0  0
   -0.0680    2.5917    1.7259 C   0  0  0  0  0  0  0  0  0  0  0  0
    0.8291    2.5894    0.7038 C   0  0  0  0  0  0  0  0  0  0  0  0
    0.4911    2.8510   -0.5753 N   0  0  0  0  0  0  0  0  0  0  0  0
    1.0500    2.6379   -1.7977 C   0  0  0  0  0  0  0  0  0  0  0  0
    1.8740    1.5671   -2.0119 C   0  0  0  0  0  0  0  0  0  0  0  0
    2.5462    1.4594   -3.1694 C   0  0  0  0  0  0  0  0  0  0  0  0
    3.3321    0.3920   -3.3408 C   0  0  0  0  0  0  0  0  0  0  0  0
    3.4380   -0.5203   -2.3628 C   0  0  0  0  0  0  0  0  0  0  0  0
    4.1811   -1.5694   -2.6656 F   0  0  0  0  0  0  0  0  0  0  0  0
    2.7489   -0.3707   -1.2051 C   0  0  0  0  0  0  0  0  0  0  0  0
    2.7270   -1.2201   -0.1332 C   0  0  0  0  0  0  0  0  0  0  0  0
    3.6489   -2.1898    0.0978 C   0  0  0  0  0  0  0  0  0  0  0  0
    4.7150   -2.3777   -0.6590 F   0  0  0  0  0  0  0  0  0  0  0  0
    3.5999   -3.0030    1.1664 C   0  0  0  0  0  0  0  0  0  0  0  0
    2.6200   -2.9036    2.0690 C   0  0  0  0  0  0  0  0  0  0  0  0
    1.6969   -1.9574    1.8778 C   0  0  0  0  0  0  0  0  0  0  0  0
    1.7519   -1.1381    0.8146 C   0  0  0  0  0  0  0  0  0  0  0  0
    0.7377   -0.2858    0.7548 F   0  0  0  0  0  0  0  0  0  0  0  0
    2.0029    0.6586   -1.1372 N   0  0  0  0  0  0  0  0  0  0  0  0
    0.7400    3.4127   -2.6712 O   0  0  0  0  0  0  0  0  0  0  0  0
    2.1458    2.4625    0.9734 C   0  0  0  0  0  0  0  0  0  0  0  0
    2.6565    2.3172    2.1187 N   0  0  0  0  0  0  0  0  0  0  0  0
    1.8475    2.3180    3.0846 C   0  0  0  0  0  0  0  0  0  0  0  0
    0.5217    2.4593    2.9376 C   0  0  0  0  0  0  0  0  0  0  0  0
   -4.5573    2.7028    4.1011 H   0  0  0  0  0  0  0  0  0  0  0  0
   -4.6389    1.0769    4.2905 H   0  0  0  0  0  0  0  0  0  0  0  0
   -1.7398    3.2738    3.7405 H   0  0  0  0  0  0  0  0  0  0  0  0
   -2.8964    3.7626    2.5596 H   0  0  0  0  0  0  0  0  0  0  0  0
   -4.1194   -0.4651    2.2409 H   0  0  0  0  0  0  0  0  0  0  0  0
   -3.3322    0.8977   -1.5965 H   0  0  0  0  0  0  0  0  0  0  0  0
   -4.6249    0.1687   -0.5968 H   0  0  0  0  0  0  0  0  0  0  0  0
   -4.6027    1.9465   -0.8736 H   0  0  0  0  0  0  0  0  0  0  0  0
   -1.5088    2.0837   -0.5032 H   0  0  0  0  0  0  0  0  0  0  0  0
   -2.6486    3.3599    0.0747 H   0  0  0  0  0  0  0  0  0  0  0  0
   -0.3939    3.3295   -0.6037 H   0  0  0  0  0  0  0  0  0  0  0  0
    2.4788    2.1999   -3.9825 H   0  0  0  0  0  0  0  0  0  0  0  0
    3.8775    0.2602   -4.2905 H   0  0  0  0  0  0  0  0  0  0  0  0
    4.3860   -3.7626    1.3187 H   0  0  0  0  0  0  0  0  0  0  0  0
    2.5794   -3.5722    2.9443 H   0  0  0  0  0  0  0  0  0  0  0  0
    0.8754   -1.8591    2.6084 H   0  0  0  0  0  0  0  0  0  0  0  0
    2.9113    2.5425    0.1831 H   0  0  0  0  0  0  0  0  0  0  0  0
    2.2932    2.1867    4.0859 H   0  0  0  0  0  0  0  0  0  0  0  0
   -0.0245    2.3958    3.8889 H   0  0  0  0  0  0  0  0  0  0  0  0
  1  2  1  0      
  1 37  1  0      
  1 38  1  0      
  2  3  1  0      
  4  2  1  0      
  2  5  1  0      
 12  4  1  0      
  4 39  1  0      
  4 40  1  0      
  5  6  1  0      
  5  7  1  0      
  5  8  1  0      
  7 41  1  0      
  8  9  1  0      
  8 10  1  0      
  8 11  1  0      
 10 42  1  0      
 10 43  1  0      
 10 44  1  0      
 12 11  1  0      
 11 45  1  0      
 11 46  1  0      
 12 13  1  0      
 13 14  2  0      
 36 13  1  0      
 14 15  1  0      
 14 33  1  0      
 15 16  1  0      
 15 47  1  0      
 16 17  1  0      
 16 32  2  0      
 18 17  1  0      
 17 31  2  0      
 19 18  2  0      
 18 48  1  0      
 20 19  1  0      
 19 49  1  0      
 20 21  1  0      
 20 22  2  0      
 22 23  1  0      
 31 22  1  0      
 23 24  1  0      
 23 29  2  0      
 24 25  1  0      
 24 26  2  0      
 26 27  1  0      
 26 50  1  0      
 27 28  2  0      
 27 51  1  0      
 28 29  1  0      
 28 52  1  0      
 29 30  1  0      
 33 34  2  0      
 33 53  1  0      
 34 35  1  0      
 36 35  2  0      
 35 54  1  0      
 36 55  1  0      
M  END
