
  Chem3D Core 15.003181609483D

 63 67  0  0  0  0  0  0  0  0999 V2000
   -1.3585   -1.1491   -0.2687 O   0  0  0  0  0  0  0  0  0  0  0  0
   -3.8649    0.5964    3.0830 O   0  0  0  0  0  0  0  0  0  0  0  0
   -0.0699    1.5087   -0.3071 N   0  0  0  0  0  0  0  0  0  0  0  0
   -2.3049    1.9104    2.1409 N   0  0  0  0  0  0  0  0  0  0  0  0
   -2.6849   -0.2775    1.3475 N   0  0  0  0  0  0  0  0  0  0  0  0
   -0.5811    2.9957    0.9650 N   0  0  0  0  0  0  0  0  0  0  0  0
    1.0410    3.5391   -0.4675 N   0  0  0  0  0  0  0  0  0  0  0  0
   -1.6274   -2.1635    2.8729 N   0  0  0  0  0  0  0  0  0  0  0  0
   -3.1758   -3.7134    2.3849 N   0  0  0  0  0  0  0  0  0  0  0  0
    3.3161    3.1141    1.3328 N   0  0  0  0  0  0  0  0  0  0  0  0
   -1.0071    1.0064    0.3926 C   0  0  0  0  0  0  0  0  0  0  0  0
   -1.3235    2.0077    1.2241 C   0  0  0  0  0  0  0  0  0  0  0  0
   -1.6476   -0.1957    0.4205 C   0  0  0  0  0  0  0  0  0  0  0  0
    0.2622    2.6852    0.0653 C   0  0  0  0  0  0  0  0  0  0  0  0
   -3.0079    0.7370    2.2444 C   0  0  0  0  0  0  0  0  0  0  0  0
   -3.4260   -1.5500    1.4373 C   0  0  0  0  0  0  0  0  0  0  0  0
    0.5006    0.8105   -1.4769 C   0  0  0  0  0  0  0  0  0  0  0  0
   -2.6860   -2.5505    2.2995 C   0  0  0  0  0  0  0  0  0  0  0  0
   -2.6244    3.0161    3.0438 C   0  0  0  0  0  0  0  0  0  0  0  0
    2.3922    3.1454   -0.9366 C   0  0  0  0  0  0  0  0  0  0  0  0
    0.7403    4.9840   -0.2983 C   0  0  0  0  0  0  0  0  0  0  0  0
   -0.9910   -2.9861    3.5938 C   0  0  0  0  0  0  0  0  0  0  0  0
   -1.4408   -4.2477    3.7417 C   0  0  0  0  0  0  0  0  0  0  0  0
   -2.5764   -4.5736    3.0946 C   0  0  0  0  0  0  0  0  0  0  0  0
    0.5957    1.6721   -2.6701 C   0  0  0  0  0  0  0  0  0  0  0  0
    3.4203    3.7783    0.0195 C   0  0  0  0  0  0  0  0  0  0  0  0
    1.7664    5.6088    0.6547 C   0  0  0  0  0  0  0  0  0  0  0  0
    3.1922    5.2910    0.1782 C   0  0  0  0  0  0  0  0  0  0  0  0
    0.1376   -2.5940    4.2107 C   0  0  0  0  0  0  0  0  0  0  0  0
   -0.7472   -5.1044    4.5127 C   0  0  0  0  0  0  0  0  0  0  0  0
    0.6455    2.3820   -3.6523 C   0  0  0  0  0  0  0  0  0  0  0  0
   -3.2261   -5.9362    3.1419 C   0  0  0  0  0  0  0  0  0  0  0  0
    0.8234   -3.4546    4.9778 C   0  0  0  0  0  0  0  0  0  0  0  0
    0.3791   -4.7110    5.1280 C   0  0  0  0  0  0  0  0  0  0  0  0
    0.7196    3.2726   -4.8202 C   0  0  0  0  0  0  0  0  0  0  0  0
    3.8630    3.6296    2.0440 H   0  0  0  0  0  0  0  0  0  0  0  0
    2.3372    3.1410    1.6686 H   0  0  0  0  0  0  0  0  0  0  0  0
   -4.4553   -1.4107    1.8373 H   0  0  0  0  0  0  0  0  0  0  0  0
   -3.5992   -1.9794    0.4238 H   0  0  0  0  0  0  0  0  0  0  0  0
    1.4576    0.3017   -1.2321 H   0  0  0  0  0  0  0  0  0  0  0  0
   -0.1773    0.0295   -1.8822 H   0  0  0  0  0  0  0  0  0  0  0  0
   -3.6878    3.3239    2.9200 H   0  0  0  0  0  0  0  0  0  0  0  0
   -2.4495    2.7153    4.1020 H   0  0  0  0  0  0  0  0  0  0  0  0
   -2.0014    3.9174    2.8533 H   0  0  0  0  0  0  0  0  0  0  0  0
    2.5853    2.0529   -0.9299 H   0  0  0  0  0  0  0  0  0  0  0  0
    2.5567    3.5329   -1.9686 H   0  0  0  0  0  0  0  0  0  0  0  0
   -0.2985    5.2003    0.0377 H   0  0  0  0  0  0  0  0  0  0  0  0
    0.8290    5.4653   -1.3013 H   0  0  0  0  0  0  0  0  0  0  0  0
    4.4553    3.6013   -0.3651 H   0  0  0  0  0  0  0  0  0  0  0  0
    1.6164    6.7134    0.7093 H   0  0  0  0  0  0  0  0  0  0  0  0
    1.6096    5.2077    1.6837 H   0  0  0  0  0  0  0  0  0  0  0  0
    3.9330    5.7122    0.8989 H   0  0  0  0  0  0  0  0  0  0  0  0
    3.3721    5.7919   -0.8031 H   0  0  0  0  0  0  0  0  0  0  0  0
    0.5109   -1.5621    4.0924 H   0  0  0  0  0  0  0  0  0  0  0  0
   -1.0807   -6.1445    4.6593 H   0  0  0  0  0  0  0  0  0  0  0  0
   -4.1574   -5.9868    2.5333 H   0  0  0  0  0  0  0  0  0  0  0  0
   -2.5353   -6.7134    2.7429 H   0  0  0  0  0  0  0  0  0  0  0  0
   -3.5065   -6.2003    4.1870 H   0  0  0  0  0  0  0  0  0  0  0  0
    1.7488   -3.1308    5.4828 H   0  0  0  0  0  0  0  0  0  0  0  0
    0.9415   -5.4205    5.7582 H   0  0  0  0  0  0  0  0  0  0  0  0
    1.6580    3.8702   -4.7815 H   0  0  0  0  0  0  0  0  0  0  0  0
    0.7096    2.6736   -5.7582 H   0  0  0  0  0  0  0  0  0  0  0  0
   -0.1501    3.9672   -4.8238 H   0  0  0  0  0  0  0  0  0  0  0  0
  1 13  2  0      
  2 15  2  0      
  3 11  1  0      
 14  3  1  0      
  3 17  1  0      
  4 12  1  0      
 15  4  1  0      
  4 19  1  0      
  5 13  1  0      
  5 15  1  0      
  5 16  1  0      
 12  6  1  0      
  6 14  2  0      
  7 14  1  0      
  7 20  1  0      
  7 21  1  0      
  8 18  1  0      
 22  8  2  0      
 18  9  2  0      
  9 24  1  0      
 26 10  1  0      
 10 36  1  0      
 10 37  1  0      
 12 11  2  0      
 11 13  1  0      
 16 18  1  0      
 16 38  1  0      
 16 39  1  0      
 17 25  1  0      
 17 40  1  0      
 17 41  1  0      
 19 42  1  0      
 19 43  1  0      
 19 44  1  0      
 20 26  1  0      
 20 45  1  0      
 20 46  1  0      
 27 21  1  0      
 21 47  1  0      
 21 48  1  0      
 22 23  1  0      
 29 22  1  0      
 24 23  2  0      
 23 30  1  0      
 24 32  1  0      
 25 31  3  0      
 26 28  1  0      
 26 49  1  0      
 28 27  1  0      
 27 50  1  0      
 27 51  1  0      
 28 52  1  0      
 28 53  1  0      
 33 29  2  0      
 29 54  1  0      
 30 34  2  0      
 30 55  1  0      
 31 35  1  0      
 32 56  1  0      
 32 57  1  0      
 32 58  1  0      
 33 34  1  0      
 33 59  1  0      
 34 60  1  0      
 35 61  1  0      
 35 62  1  0      
 35 63  1  0      
M  END
