
  Chem3D Core 15.011261511283D

 46 49  0  0  0  0  0  0  0  0999 V2000
   -0.4195    1.4180   -0.0173 C   0  0  0  0  0  0  0  0  0  0  0  0
   -0.3209    0.1281    0.3390 C   0  0  0  0  0  0  0  0  0  0  0  0
   -1.0344   -0.3587    1.3666 C   0  0  0  0  0  0  0  0  0  0  0  0
   -1.8691    0.4008    2.1033 C   0  0  0  0  0  0  0  0  0  0  0  0
   -2.0025    1.6777    1.6900 C   0  0  0  0  0  0  0  0  0  0  0  0
   -1.2924    2.1765    0.6657 C   0  0  0  0  0  0  0  0  0  0  0  0
   -2.5897   -0.1231    3.1241 C   0  0  0  0  0  0  0  0  0  0  0  0
   -4.2952   -1.2831    4.9830 C   0  0  0  0  0  0  0  0  0  0  0  0
   -4.6825   -0.2303    4.2502 C   0  0  0  0  0  0  0  0  0  0  0  0
   -3.8444    0.3297    3.3591 C   0  0  0  0  0  0  0  0  0  0  0  0
   -2.1907   -1.1336    3.9270 C   0  0  0  0  0  0  0  0  0  0  0  0
   -1.0318   -1.7814    4.1678 C   0  0  0  0  0  0  0  0  0  0  0  0
   -3.0378   -1.6911    4.8047 C   0  0  0  0  0  0  0  0  0  0  0  0
   -1.2274   -2.6881    5.0352 N   0  0  0  0  0  0  0  0  0  0  0  0
    0.1029   -1.5311    3.6661 N   0  0  0  0  0  0  0  0  0  0  0  0
    0.2375    2.0235   -1.0266 N   0  0  0  0  0  0  0  0  0  0  0  0
    1.2404    1.6344   -1.8623 C   0  0  0  0  0  0  0  0  0  0  0  0
    1.4707    2.3322   -2.8110 O   0  0  0  0  0  0  0  0  0  0  0  0
    1.9774    0.5246   -1.5629 N   0  0  0  0  0  0  0  0  0  0  0  0
    2.9497   -0.1497   -2.2125 C   0  0  0  0  0  0  0  0  0  0  0  0
    4.4570   -1.9285   -2.0727 C   0  0  0  0  0  0  0  0  0  0  0  0
    3.4838   -1.1829   -1.5287 C   0  0  0  0  0  0  0  0  0  0  0  0
    3.4113    0.1010   -3.4501 C   0  0  0  0  0  0  0  0  0  0  0  0
    4.3861   -0.6389   -4.0092 C   0  0  0  0  0  0  0  0  0  0  0  0
    4.9075   -1.6579   -3.3058 C   0  0  0  0  0  0  0  0  0  0  0  0
    4.8731   -0.3203   -5.4037 C   0  0  0  0  0  0  0  0  0  0  0  0
   -2.4027   -2.6107    5.3947 N   0  0  0  0  0  0  0  0  0  0  0  0
    3.0545   -1.4691   -0.3073 F   0  0  0  0  0  0  0  0  0  0  0  0
    0.3003   -0.5830   -0.2240 H   0  0  0  0  0  0  0  0  0  0  0  0
   -0.9657   -1.4466    1.5343 H   0  0  0  0  0  0  0  0  0  0  0  0
   -2.6662    2.3885    2.2095 H   0  0  0  0  0  0  0  0  0  0  0  0
   -1.4258    3.2389    0.3954 H   0  0  0  0  0  0  0  0  0  0  0  0
   -4.9626   -1.7640    5.7147 H   0  0  0  0  0  0  0  0  0  0  0  0
   -5.7096    0.1567    4.3644 H   0  0  0  0  0  0  0  0  0  0  0  0
   -4.2900    1.1404    2.7589 H   0  0  0  0  0  0  0  0  0  0  0  0
    0.2425   -0.7367    2.9976 H   0  0  0  0  0  0  0  0  0  0  0  0
    0.9372   -2.1015    3.9491 H   0  0  0  0  0  0  0  0  0  0  0  0
   -0.0857    2.9701   -1.1608 H   0  0  0  0  0  0  0  0  0  0  0  0
    1.8132    0.1012   -0.6613 H   0  0  0  0  0  0  0  0  0  0  0  0
    4.8881   -2.7685   -1.5029 H   0  0  0  0  0  0  0  0  0  0  0  0
    3.0026    0.9169   -4.0619 H   0  0  0  0  0  0  0  0  0  0  0  0
    5.7069   -2.2822   -3.7373 H   0  0  0  0  0  0  0  0  0  0  0  0
    5.7096   -0.9790   -5.7274 H   0  0  0  0  0  0  0  0  0  0  0  0
    4.0453   -0.4446   -6.1386 H   0  0  0  0  0  0  0  0  0  0  0  0
    5.2383    0.7306   -5.4572 H   0  0  0  0  0  0  0  0  0  0  0  0
   -2.7801   -3.2389    6.1386 H   0  0  0  0  0  0  0  0  0  0  0  0
  1  2  1  0      
  1  6  2  0      
  1 16  1  0      
  2  3  2  0      
  2 29  1  0      
  3  4  1  0      
  3 30  1  0      
  4  5  2  0      
  4  7  1  0      
  5  6  1  0      
  5 31  1  0      
  6 32  1  0      
 10  7  2  0      
  7 11  1  0      
  8  9  2  0      
 13  8  1  0      
  8 33  1  0      
  9 10  1  0      
  9 34  1  0      
 10 35  1  0      
 12 11  1  0      
 13 11  2  0      
 12 14  2  0      
 12 15  1  0      
 27 13  1  0      
 14 27  1  0      
 15 36  1  0      
 15 37  1  0      
 16 17  1  0      
 16 38  1  0      
 17 18  2  0      
 17 19  1  0      
 19 20  1  0      
 19 39  1  0      
 20 22  1  0      
 20 23  2  0      
 22 21  2  0      
 21 25  1  0      
 21 40  1  0      
 22 28  1  0      
 24 23  1  0      
 23 41  1  0      
 25 24  2  0      
 24 26  1  0      
 25 42  1  0      
 26 43  1  0      
 26 44  1  0      
 26 45  1  0      
 27 46  1  0      
M  END
