
  Chem3D Core 15.003241614303D

 45 48  0  0  0  0  0  0  0  0999 V2000
    3.5333   -0.2194   -1.7441 C   0  0  0  0  0  0  0  0  0  0  0  0
    3.7545   -1.4378   -1.2233 C   0  0  0  0  0  0  0  0  0  0  0  0
    2.7335   -2.2762   -0.9801 C   0  0  0  0  0  0  0  0  0  0  0  0
    1.4450   -1.9524   -1.2199 C   0  0  0  0  0  0  0  0  0  0  0  0
    1.2567   -0.7363   -1.7749 C   0  0  0  0  0  0  0  0  0  0  0  0
    2.2640    0.1141   -2.0221 C   0  0  0  0  0  0  0  0  0  0  0  0
    4.5429    0.6551   -2.0062 O   0  0  0  0  0  0  0  0  0  0  0  0
    0.6286   -4.1234   -1.1355 C   0  0  0  0  0  0  0  0  0  0  0  0
    0.4057   -2.7972   -0.9864 C   0  0  0  0  0  0  0  0  0  0  0  0
   -0.8788   -2.4255   -0.7289 C   0  0  0  0  0  0  0  0  0  0  0  0
   -1.8018   -3.4120   -0.7514 C   0  0  0  0  0  0  0  0  0  0  0  0
   -1.4357   -4.6890   -0.9237 C   0  0  0  0  0  0  0  0  0  0  0  0
   -0.2377   -5.0431   -1.0950 N   0  0  0  0  0  0  0  0  0  0  0  0
   -1.2832   -1.1875   -0.3440 C   0  0  0  0  0  0  0  0  0  0  0  0
   -2.5225   -0.7017   -0.5488 C   0  0  0  0  0  0  0  0  0  0  0  0
   -2.8865    0.5388   -0.1815 C   0  0  0  0  0  0  0  0  0  0  0  0
   -2.0617    1.4086    0.4395 C   0  0  0  0  0  0  0  0  0  0  0  0
   -0.8517    0.8805    0.7186 C   0  0  0  0  0  0  0  0  0  0  0  0
   -0.4818   -0.3564    0.3497 C   0  0  0  0  0  0  0  0  0  0  0  0
   -2.4025    2.6029    0.7660 N   0  0  0  0  0  0  0  0  0  0  0  0
   -1.4487    3.4736    1.5045 C   0  0  0  0  0  0  0  0  0  0  0  0
   -1.8321    4.9522    1.4888 C   0  0  0  0  0  0  0  0  0  0  0  0
   -3.2128    5.1176    1.6734 O   0  0  0  0  0  0  0  0  0  0  0  0
   -3.9208    4.6089    0.5748 C   0  0  0  0  0  0  0  0  0  0  0  0
   -3.7789    3.0904    0.4820 C   0  0  0  0  0  0  0  0  0  0  0  0
    2.0244    1.2971   -2.5661 F   0  0  0  0  0  0  0  0  0  0  0  0
    4.9918   -1.8126   -0.9326 F   0  0  0  0  0  0  0  0  0  0  0  0
    3.0122   -3.2370   -0.5180 H   0  0  0  0  0  0  0  0  0  0  0  0
    0.2589   -0.3979   -2.0989 H   0  0  0  0  0  0  0  0  0  0  0  0
    4.1663    1.4619   -2.3946 H   0  0  0  0  0  0  0  0  0  0  0  0
    1.6197   -4.5369   -1.3856 H   0  0  0  0  0  0  0  0  0  0  0  0
   -2.8719   -3.2533   -0.5439 H   0  0  0  0  0  0  0  0  0  0  0  0
   -2.1848   -5.4986   -0.8963 H   0  0  0  0  0  0  0  0  0  0  0  0
   -3.2846   -1.2855   -1.0913 H   0  0  0  0  0  0  0  0  0  0  0  0
   -3.9243    0.7983   -0.4416 H   0  0  0  0  0  0  0  0  0  0  0  0
   -0.0834    1.4295    1.2844 H   0  0  0  0  0  0  0  0  0  0  0  0
    0.5177   -0.6845    0.6829 H   0  0  0  0  0  0  0  0  0  0  0  0
   -0.4218    3.4447    1.0696 H   0  0  0  0  0  0  0  0  0  0  0  0
   -1.4136    3.1281    2.5661 H   0  0  0  0  0  0  0  0  0  0  0  0
   -1.5275    5.4411    0.5347 H   0  0  0  0  0  0  0  0  0  0  0  0
   -1.3106    5.4986    2.3087 H   0  0  0  0  0  0  0  0  0  0  0  0
   -4.9918    4.8931    0.6988 H   0  0  0  0  0  0  0  0  0  0  0  0
   -3.5638    5.1086   -0.3554 H   0  0  0  0  0  0  0  0  0  0  0  0
   -4.4721    2.6235    1.2230 H   0  0  0  0  0  0  0  0  0  0  0  0
   -4.1150    2.8383   -0.5512 H   0  0  0  0  0  0  0  0  0  0  0  0
  1  2  1  0      
  1  6  2  0      
  1  7  1  0      
  2  3  2  0      
  2 27  1  0      
  3  4  1  0      
  3 28  1  0      
  4  5  2  0      
  4  9  1  0      
  5  6  1  0      
  5 29  1  0      
  6 26  1  0      
  7 30  1  0      
  9  8  1  0      
  8 13  2  0      
  8 31  1  0      
 10  9  2  0      
 11 10  1  0      
 10 14  1  0      
 11 12  2  0      
 11 32  1  0      
 13 12  1  0      
 12 33  1  0      
 14 15  1  0      
 14 19  2  0      
 15 16  2  0      
 15 34  1  0      
 16 17  1  0      
 16 35  1  0      
 17 18  2  0      
 17 20  1  0      
 18 19  1  0      
 18 36  1  0      
 19 37  1  0      
 20 21  1  0      
 20 25  1  0      
 21 22  1  0      
 21 38  1  0      
 21 39  1  0      
 22 23  1  0      
 22 40  1  0      
 22 41  1  0      
 23 24  1  0      
 24 25  1  0      
 24 42  1  0      
 24 43  1  0      
 25 44  1  0      
 25 45  1  0      
M  END
