
  Chem3D Core 15.010021516203D

 87 92  0  0  0  0  0  0  0  0999 V2000
    2.4307    6.2728    2.4737 F   0  0  0  0  0  0  0  0  0  0  0  0
    2.2517    7.3712    1.7565 C   0  0  0  0  0  0  0  0  0  0  0  0
    2.4225    8.4028    2.5692 F   0  0  0  0  0  0  0  0  0  0  0  0
    0.8746    7.4401    1.1396 C   0  0  0  0  0  0  0  0  0  0  0  0
   -0.1766    6.8151    1.6930 C   0  0  0  0  0  0  0  0  0  0  0  0
   -1.3870    6.8307    1.1122 C   0  0  0  0  0  0  0  0  0  0  0  0
   -1.6223    7.4282   -0.0762 C   0  0  0  0  0  0  0  0  0  0  0  0
   -2.8505    7.4443   -0.6617 C   0  0  0  0  0  0  0  0  0  0  0  0
   -3.9436    7.4080    0.1350 C   0  0  0  0  0  0  0  0  0  0  0  0
   -5.1944    7.5523   -0.3264 C   0  0  0  0  0  0  0  0  0  0  0  0
   -5.3985    7.7492   -1.6327 C   0  0  0  0  0  0  0  0  0  0  0  0
   -4.3416    7.7530   -2.4544 C   0  0  0  0  0  0  0  0  0  0  0  0
   -3.0865    7.5714   -1.9945 C   0  0  0  0  0  0  0  0  0  0  0  0
   -2.1145    7.4998   -2.9493 C   0  0  0  0  0  0  0  0  0  0  0  0
   -1.1889    6.4902   -2.9498 N   0  0  0  0  0  0  0  0  0  0  0  0
   -1.3038    5.2133   -2.2262 C   0  0  0  0  0  0  0  0  0  0  0  0
   -1.8888    4.1366   -3.1506 C   0  0  0  0  0  0  0  0  0  0  0  0
   -1.9364    2.7774   -2.4355 C   0  0  0  0  0  0  0  0  0  0  0  0
   -0.6210    2.3499   -1.9689 N   0  0  0  0  0  0  0  0  0  0  0  0
   -0.7140    1.0296   -1.3482 C   0  0  0  0  0  0  0  0  0  0  0  0
    0.6368    0.4327   -0.9100 C   0  0  0  0  0  0  0  0  0  0  0  0
    0.5081   -1.0494   -0.5131 C   0  0  0  0  0  0  0  0  0  0  0  0
    1.8359   -1.6197    0.0106 C   0  0  0  0  0  0  0  0  0  0  0  0
    1.8875   -3.1427    0.2057 C   0  0  0  0  0  0  0  0  0  0  0  0
    3.1128   -3.5448    1.0041 C   0  0  0  0  0  0  0  0  0  0  0  0
    2.8117   -4.1984    2.1374 C   0  0  0  0  0  0  0  0  0  0  0  0
    1.4797   -4.3141    2.2431 C   0  0  0  0  0  0  0  0  0  0  0  0
    0.8924   -3.7357    1.1821 C   0  0  0  0  0  0  0  0  0  0  0  0
   -0.4399   -3.7921    1.0400 C   0  0  0  0  0  0  0  0  0  0  0  0
   -1.1772   -4.3860    1.9922 C   0  0  0  0  0  0  0  0  0  0  0  0
   -0.5871   -4.9344    3.0672 C   0  0  0  0  0  0  0  0  0  0  0  0
    0.7495   -4.9086    3.1972 C   0  0  0  0  0  0  0  0  0  0  0  0
    3.7804   -4.6348    2.9547 C   0  0  0  0  0  0  0  0  0  0  0  0
    5.0610   -4.4059    2.6192 C   0  0  0  0  0  0  0  0  0  0  0  0
    5.3647   -3.7550    1.4834 C   0  0  0  0  0  0  0  0  0  0  0  0
    4.3910   -3.3216    0.6667 C   0  0  0  0  0  0  0  0  0  0  0  0
    1.8804   -3.9807   -1.0625 C   0  0  0  0  0  0  0  0  0  0  0  0
    1.9357   -5.3205   -0.8003 N   0  0  0  0  0  0  0  0  0  0  0  0
    1.9606   -6.3445   -1.8502 C   0  0  0  0  0  0  0  0  0  0  0  0
    1.6384   -7.6622   -1.2609 C   0  0  0  0  0  0  0  0  0  0  0  0
    0.4482   -7.6640   -0.7290 F   0  0  0  0  0  0  0  0  0  0  0  0
    1.6770   -8.6176   -2.1472 F   0  0  0  0  0  0  0  0  0  0  0  0
    2.4830   -7.9668   -0.3158 F   0  0  0  0  0  0  0  0  0  0  0  0
    1.8374   -3.5371   -2.1825 O   0  0  0  0  0  0  0  0  0  0  0  0
   -0.0363    3.3473   -1.0818 C   0  0  0  0  0  0  0  0  0  0  0  0
    0.0720    4.7238   -1.7568 C   0  0  0  0  0  0  0  0  0  0  0  0
   -2.1455    8.1639   -3.9589 O   0  0  0  0  0  0  0  0  0  0  0  0
   -0.5475    8.0357   -0.6225 C   0  0  0  0  0  0  0  0  0  0  0  0
    0.6649    8.0343   -0.0457 C   0  0  0  0  0  0  0  0  0  0  0  0
    3.2162    7.4199    0.8509 F   0  0  0  0  0  0  0  0  0  0  0  0
   -0.0489    6.2704    2.6435 H   0  0  0  0  0  0  0  0  0  0  0  0
   -2.1669    6.2622    1.6444 H   0  0  0  0  0  0  0  0  0  0  0  0
   -3.8776    7.3387    1.2328 H   0  0  0  0  0  0  0  0  0  0  0  0
   -6.0530    7.5475    0.3666 H   0  0  0  0  0  0  0  0  0  0  0  0
   -6.4205    7.8820   -2.0250 H   0  0  0  0  0  0  0  0  0  0  0  0
   -4.5567    7.8643   -3.5316 H   0  0  0  0  0  0  0  0  0  0  0  0
   -0.5083    6.5564   -3.7048 H   0  0  0  0  0  0  0  0  0  0  0  0
   -1.9737    5.2822   -1.3417 H   0  0  0  0  0  0  0  0  0  0  0  0
   -2.9147    4.4351   -3.4747 H   0  0  0  0  0  0  0  0  0  0  0  0
   -1.2639    4.0513   -4.0713 H   0  0  0  0  0  0  0  0  0  0  0  0
   -2.3513    2.0286   -3.1531 H   0  0  0  0  0  0  0  0  0  0  0  0
   -2.6529    2.8424   -1.5817 H   0  0  0  0  0  0  0  0  0  0  0  0
   -1.1606    0.3181   -2.0848 H   0  0  0  0  0  0  0  0  0  0  0  0
   -1.3992    1.0563   -0.4674 H   0  0  0  0  0  0  0  0  0  0  0  0
    1.0391    0.9881   -0.0304 H   0  0  0  0  0  0  0  0  0  0  0  0
    1.3719    0.5306   -1.7442 H   0  0  0  0  0  0  0  0  0  0  0  0
    0.1620   -1.6343   -1.3965 H   0  0  0  0  0  0  0  0  0  0  0  0
   -0.2715   -1.1341    0.2799 H   0  0  0  0  0  0  0  0  0  0  0  0
    2.0592   -1.1238    0.9861 H   0  0  0  0  0  0  0  0  0  0  0  0
    2.6546   -1.3262   -0.6882 H   0  0  0  0  0  0  0  0  0  0  0  0
   -0.9290   -3.3737    0.1473 H   0  0  0  0  0  0  0  0  0  0  0  0
   -2.2737   -4.4361    1.8835 H   0  0  0  0  0  0  0  0  0  0  0  0
   -1.2031   -5.4269    3.8384 H   0  0  0  0  0  0  0  0  0  0  0  0
    1.2219   -5.3834    4.0713 H   0  0  0  0  0  0  0  0  0  0  0  0
    3.5475   -5.1755    3.8855 H   0  0  0  0  0  0  0  0  0  0  0  0
    5.8707   -4.7596    3.2796 H   0  0  0  0  0  0  0  0  0  0  0  0
    6.4205   -3.5787    1.2175 H   0  0  0  0  0  0  0  0  0  0  0  0
    4.6375   -2.7950   -0.2687 H   0  0  0  0  0  0  0  0  0  0  0  0
    2.0269   -5.5896    0.1833 H   0  0  0  0  0  0  0  0  0  0  0  0
    1.2147   -6.1036   -2.6439 H   0  0  0  0  0  0  0  0  0  0  0  0
    2.9752   -6.3638   -2.3130 H   0  0  0  0  0  0  0  0  0  0  0  0
    0.9987    3.0543   -0.7876 H   0  0  0  0  0  0  0  0  0  0  0  0
   -0.6353    3.4399   -0.1446 H   0  0  0  0  0  0  0  0  0  0  0  0
    0.7612    4.6565   -2.6321 H   0  0  0  0  0  0  0  0  0  0  0  0
    0.5218    5.4561   -1.0478 H   0  0  0  0  0  0  0  0  0  0  0  0
   -0.6179    8.6176   -1.5543 H   0  0  0  0  0  0  0  0  0  0  0  0
    1.4969    8.5528   -0.5509 H   0  0  0  0  0  0  0  0  0  0  0  0
  1  2  1  0      
  2  3  1  0      
  2  4  1  0      
  2 50  1  0      
  4  5  1  0      
  4 49  2  0      
  5  6  2  0      
  5 51  1  0      
  6  7  1  0      
  6 52  1  0      
  7  8  1  0      
  7 48  2  0      
  8  9  1  0      
  8 13  2  0      
  9 10  2  0      
  9 53  1  0      
 10 11  1  0      
 10 54  1  0      
 11 12  2  0      
 11 55  1  0      
 12 13  1  0      
 12 56  1  0      
 13 14  1  0      
 14 15  1  0      
 14 47  2  0      
 15 16  1  0      
 15 57  1  0      
 17 16  1  0      
 16 46  1  0      
 16 58  1  0      
 18 17  1  0      
 17 59  1  0      
 17 60  1  0      
 19 18  1  0      
 18 61  1  0      
 18 62  1  0      
 19 20  1  0      
 19 45  1  0      
 20 21  1  0      
 20 63  1  0      
 20 64  1  0      
 21 22  1  0      
 21 65  1  0      
 21 66  1  0      
 22 23  1  0      
 22 67  1  0      
 22 68  1  0      
 23 24  1  0      
 23 69  1  0      
 23 70  1  0      
 25 24  1  0      
 24 28  1  0      
 24 37  1  0      
 26 25  2  0      
 25 36  1  0      
 26 27  1  0      
 33 26  1  0      
 28 27  2  0      
 32 27  1  0      
 28 29  1  0      
 29 30  2  0      
 29 71  1  0      
 30 31  1  0      
 30 72  1  0      
 31 32  2  0      
 31 73  1  0      
 32 74  1  0      
 34 33  2  0      
 33 75  1  0      
 35 34  1  0      
 34 76  1  0      
 35 36  2  0      
 35 77  1  0      
 36 78  1  0      
 37 38  1  0      
 37 44  2  0      
 38 39  1  0      
 38 79  1  0      
 39 40  1  0      
 39 80  1  0      
 39 81  1  0      
 40 41  1  0      
 40 42  1  0      
 40 43  1  0      
 46 45  1  0      
 45 82  1  0      
 45 83  1  0      
 46 84  1  0      
 46 85  1  0      
 48 49  1  0      
 48 86  1  0      
 49 87  1  0      
M  END
