
  Chem3D Core 15.010021516213D

 59 60  0  0  0  0  0  0  0  0999 V2000
    6.0597   -1.7416    0.8915 F   0  0  0  0  0  0  0  0  0  0  0  0
    5.6401   -0.7929   -0.9373 F   0  0  0  0  0  0  0  0  0  0  0  0
    2.8845   -1.7203   -0.5304 O   0  0  0  0  0  0  0  0  0  0  0  0
    3.6391   -2.1811    1.5636 O   0  0  0  0  0  0  0  0  0  0  0  0
   -1.7097   -0.7962   -1.2415 O   0  0  0  0  0  0  0  0  0  0  0  0
   -6.1371    7.7807    1.5494 O   0  0  0  0  0  0  0  0  0  0  0  0
   -6.3233    7.1677   -0.6274 O   0  0  0  0  0  0  0  0  0  0  0  0
    1.4408    0.1041    0.0845 C   0  0  0  0  0  0  0  0  0  0  0  0
    1.5929   -1.3991   -0.1177 C   0  0  0  0  0  0  0  0  0  0  0  0
    3.8672   -1.3752    0.4205 C   0  0  0  0  0  0  0  0  0  0  0  0
   -0.0797    0.2861    0.2213 C   0  0  0  0  0  0  0  0  0  0  0  0
    0.5220   -1.7147   -1.1578 C   0  0  0  0  0  0  0  0  0  0  0  0
   -0.5923   -0.7436   -0.7858 C   0  0  0  0  0  0  0  0  0  0  0  0
    2.3416    0.5163    1.2471 C   0  0  0  0  0  0  0  0  0  0  0  0
    5.2177   -1.7457   -0.1248 C   0  0  0  0  0  0  0  0  0  0  0  0
    3.7688    0.0899    0.8594 C   0  0  0  0  0  0  0  0  0  0  0  0
   -0.5408    1.7303   -0.0202 C   0  0  0  0  0  0  0  0  0  0  0  0
    5.3293   -3.0510   -0.8570 C   0  0  0  0  0  0  0  0  0  0  0  0
   -1.9769    2.0097    0.4527 C   0  0  0  0  0  0  0  0  0  0  0  0
    4.9496   -4.3121   -0.0629 C   0  0  0  0  0  0  0  0  0  0  0  0
   -2.3830    3.4738    0.2156 C   0  0  0  0  0  0  0  0  0  0  0  0
    5.2900   -5.6001   -0.8315 C   0  0  0  0  0  0  0  0  0  0  0  0
   -3.8221    3.7534    0.6789 C   0  0  0  0  0  0  0  0  0  0  0  0
    4.8857   -6.8557   -0.0472 C   0  0  0  0  0  0  0  0  0  0  0  0
   -4.2310    5.2151    0.4355 C   0  0  0  0  0  0  0  0  0  0  0  0
   -5.6703    5.4914    0.8952 C   0  0  0  0  0  0  0  0  0  0  0  0
   -6.0626    6.9422    0.6784 C   0  0  0  0  0  0  0  0  0  0  0  0
    1.7728    0.6369   -0.8418 H   0  0  0  0  0  0  0  0  0  0  0  0
    1.3432   -1.9594    0.8145 H   0  0  0  0  0  0  0  0  0  0  0  0
    4.4535   -2.3108    2.0557 H   0  0  0  0  0  0  0  0  0  0  0  0
   -6.2030    6.3623   -1.1550 H   0  0  0  0  0  0  0  0  0  0  0  0
   -0.3983   -0.0597    1.2334 H   0  0  0  0  0  0  0  0  0  0  0  0
    0.1796   -2.7729   -1.1140 H   0  0  0  0  0  0  0  0  0  0  0  0
    0.8721   -1.4732   -2.1879 H   0  0  0  0  0  0  0  0  0  0  0  0
    2.2890    1.6160    1.4208 H   0  0  0  0  0  0  0  0  0  0  0  0
    2.0215    0.0123    2.1879 H   0  0  0  0  0  0  0  0  0  0  0  0
    4.4616    0.2811    1.7126 H   0  0  0  0  0  0  0  0  0  0  0  0
    4.0989    0.7535    0.0254 H   0  0  0  0  0  0  0  0  0  0  0  0
    0.1419    2.4171    0.5345 H   0  0  0  0  0  0  0  0  0  0  0  0
   -0.4388    1.9741   -1.1037 H   0  0  0  0  0  0  0  0  0  0  0  0
    4.7169   -3.0147   -1.7892 H   0  0  0  0  0  0  0  0  0  0  0  0
    6.3892   -3.1656   -1.1929 H   0  0  0  0  0  0  0  0  0  0  0  0
   -2.6939    1.3468   -0.0833 H   0  0  0  0  0  0  0  0  0  0  0  0
   -2.0601    1.7760    1.5407 H   0  0  0  0  0  0  0  0  0  0  0  0
    5.4871   -4.3179    0.9147 H   0  0  0  0  0  0  0  0  0  0  0  0
    3.8547   -4.3148    0.1468 H   0  0  0  0  0  0  0  0  0  0  0  0
   -1.6813    4.1470    0.7629 H   0  0  0  0  0  0  0  0  0  0  0  0
   -2.2929    3.7098   -0.8714 H   0  0  0  0  0  0  0  0  0  0  0  0
    4.7647   -5.5976   -1.8167 H   0  0  0  0  0  0  0  0  0  0  0  0
    6.3863   -5.6365   -1.0385 H   0  0  0  0  0  0  0  0  0  0  0  0
   -4.5242    3.0791    0.1332 H   0  0  0  0  0  0  0  0  0  0  0  0
   -3.9122    3.5198    1.7665 H   0  0  0  0  0  0  0  0  0  0  0  0
    5.1407   -7.7807   -0.6141 H   0  0  0  0  0  0  0  0  0  0  0  0
    5.4120   -6.9034    0.9335 H   0  0  0  0  0  0  0  0  0  0  0  0
    3.7894   -6.8713    0.1501 H   0  0  0  0  0  0  0  0  0  0  0  0
   -3.5336    5.8927    0.9835 H   0  0  0  0  0  0  0  0  0  0  0  0
   -4.1367    5.4479   -0.6519 H   0  0  0  0  0  0  0  0  0  0  0  0
   -6.3892    4.8328    0.3542 H   0  0  0  0  0  0  0  0  0  0  0  0
   -5.7681    5.2566    1.9812 H   0  0  0  0  0  0  0  0  0  0  0  0
  1 15  1  0      
  2 15  1  0      
  9  3  1  0      
 10  3  1  0      
 10  4  1  0      
  4 30  1  0      
  5 13  2  0      
  6 27  2  0      
  7 27  1  0      
  7 31  1  0      
  8  9  1  0      
  8 11  1  0      
 14  8  1  0      
  8 28  1  0      
 12  9  1  0      
  9 29  1  0      
 10 15  1  0      
 10 16  1  0      
 11 13  1  0      
 11 17  1  0      
 11 32  1  0      
 13 12  1  0      
 12 33  1  0      
 12 34  1  0      
 16 14  1  0      
 14 35  1  0      
 14 36  1  0      
 15 18  1  0      
 16 37  1  0      
 16 38  1  0      
 17 19  1  0      
 17 39  1  0      
 17 40  1  0      
 18 20  1  0      
 18 41  1  0      
 18 42  1  0      
 19 21  1  0      
 19 43  1  0      
 19 44  1  0      
 20 22  1  0      
 20 45  1  0      
 20 46  1  0      
 21 23  1  0      
 21 47  1  0      
 21 48  1  0      
 22 24  1  0      
 22 49  1  0      
 22 50  1  0      
 23 25  1  0      
 23 51  1  0      
 23 52  1  0      
 24 53  1  0      
 24 54  1  0      
 24 55  1  0      
 25 26  1  0      
 25 56  1  0      
 25 57  1  0      
 26 27  1  0      
 26 58  1  0      
 26 59  1  0      
M  END
