
  Chem3D Core 15.001271610583D

 60 62  0  0  0  0  0  0  0  0999 V2000
   -3.8515   -3.1434   -1.3829 N   0  0  0  0  0  0  0  0  0  0  0  0
   -4.1151   -2.3787   -0.2790 C   0  0  0  0  0  0  0  0  0  0  0  0
   -5.2646   -2.2647    0.0478 O   0  0  0  0  0  0  0  0  0  0  0  0
   -3.1814   -1.6779    0.4244 N   0  0  0  0  0  0  0  0  0  0  0  0
   -1.9283   -1.9639    0.8353 C   0  0  0  0  0  0  0  0  0  0  0  0
   -1.3351   -3.1657    0.7487 C   0  0  0  0  0  0  0  0  0  0  0  0
   -0.0712   -3.2954    1.1714 C   0  0  0  0  0  0  0  0  0  0  0  0
    0.6374   -2.2691    1.6784 C   0  0  0  0  0  0  0  0  0  0  0  0
    0.0490   -1.0538    1.8011 C   0  0  0  0  0  0  0  0  0  0  0  0
   -1.2264   -0.9502    1.3707 C   0  0  0  0  0  0  0  0  0  0  0  0
    3.6887    3.5876    3.2161 C   0  0  0  0  0  0  0  0  0  0  0  0
    2.4781    3.3376    3.5138 N   0  0  0  0  0  0  0  0  0  0  0  0
    1.9021    2.2825    3.1115 C   0  0  0  0  0  0  0  0  0  0  0  0
    2.5796    1.4033    2.3612 C   0  0  0  0  0  0  0  0  0  0  0  0
    3.8496    1.7248    2.0771 C   0  0  0  0  0  0  0  0  0  0  0  0
    4.3759    2.7923    2.5020 N   0  0  0  0  0  0  0  0  0  0  0  0
    1.9606    0.2913    1.9412 C   0  0  0  0  0  0  0  0  0  0  0  0
    0.6731    0.0569    2.2668 C   0  0  0  0  0  0  0  0  0  0  0  0
    0.0875    1.0167    3.0240 C   0  0  0  0  0  0  0  0  0  0  0  0
    0.6948    2.0594    3.4172 N   0  0  0  0  0  0  0  0  0  0  0  0
    4.2633    4.6482    3.6210 N   0  0  0  0  0  0  0  0  0  0  0  0
    3.6122    5.6763    4.4560 C   0  0  0  0  0  0  0  0  0  0  0  0
   -1.3014    0.9437    3.6325 C   0  0  0  0  0  0  0  0  0  0  0  0
    2.0137   -2.6202    2.2174 C   0  0  0  0  0  0  0  0  0  0  0  0
   -1.9757   -4.2337    0.3037 F   0  0  0  0  0  0  0  0  0  0  0  0
   -2.6864   -2.9546   -2.2566 C   0  0  0  0  0  0  0  0  0  0  0  0
   -2.2579   -4.2978   -2.8676 C   0  0  0  0  0  0  0  0  0  0  0  0
   -0.9131   -4.2932   -3.6342 C   0  0  0  0  0  0  0  0  0  0  0  0
   -0.7218   -5.6801   -4.2886 C   0  0  0  0  0  0  0  0  0  0  0  0
   -0.9081   -3.2220   -4.7420 C   0  0  0  0  0  0  0  0  0  0  0  0
    0.2706   -4.0458   -2.6750 C   0  0  0  0  0  0  0  0  0  0  0  0
   -4.6428   -3.6881   -1.7243 H   0  0  0  0  0  0  0  0  0  0  0  0
   -3.4664   -0.7618    0.7366 H   0  0  0  0  0  0  0  0  0  0  0  0
    0.3846   -4.2986    1.1151 H   0  0  0  0  0  0  0  0  0  0  0  0
   -1.7279    0.0307    1.3682 H   0  0  0  0  0  0  0  0  0  0  0  0
    4.4895    1.0702    1.4625 H   0  0  0  0  0  0  0  0  0  0  0  0
    2.5197   -0.3757    1.2682 H   0  0  0  0  0  0  0  0  0  0  0  0
    5.2646    4.7859    3.3341 H   0  0  0  0  0  0  0  0  0  0  0  0
    2.7380    6.1193    3.9271 H   0  0  0  0  0  0  0  0  0  0  0  0
    3.2851    5.2457    5.4296 H   0  0  0  0  0  0  0  0  0  0  0  0
    4.3414    6.4912    4.6643 H   0  0  0  0  0  0  0  0  0  0  0  0
   -1.3266    1.4053    4.6464 H   0  0  0  0  0  0  0  0  0  0  0  0
   -2.0432    1.4971    3.0133 H   0  0  0  0  0  0  0  0  0  0  0  0
   -1.6440   -0.1021    3.7955 H   0  0  0  0  0  0  0  0  0  0  0  0
    2.0347   -3.6538    2.6314 H   0  0  0  0  0  0  0  0  0  0  0  0
    2.7820   -2.5850    1.4122 H   0  0  0  0  0  0  0  0  0  0  0  0
    2.3224   -1.9821    3.0746 H   0  0  0  0  0  0  0  0  0  0  0  0
   -2.9841   -2.2461   -3.0639 H   0  0  0  0  0  0  0  0  0  0  0  0
   -1.8442   -2.4788   -1.7149 H   0  0  0  0  0  0  0  0  0  0  0  0
   -2.1975   -5.0652   -2.0610 H   0  0  0  0  0  0  0  0  0  0  0  0
   -3.0719   -4.6349   -3.5531 H   0  0  0  0  0  0  0  0  0  0  0  0
    0.2393   -5.7396   -4.8477 H   0  0  0  0  0  0  0  0  0  0  0  0
   -0.7132   -6.4912   -3.5256 H   0  0  0  0  0  0  0  0  0  0  0  0
   -1.5384   -5.9060   -5.0111 H   0  0  0  0  0  0  0  0  0  0  0  0
    0.0198   -3.2797   -5.3547 H   0  0  0  0  0  0  0  0  0  0  0  0
   -0.9529   -2.1926   -4.3224 H   0  0  0  0  0  0  0  0  0  0  0  0
   -1.7746   -3.3492   -5.4296 H   0  0  0  0  0  0  0  0  0  0  0  0
    0.2795   -4.7845   -1.8419 H   0  0  0  0  0  0  0  0  0  0  0  0
    1.2445   -4.1316   -3.2079 H   0  0  0  0  0  0  0  0  0  0  0  0
    0.2446   -3.0303   -2.2231 H   0  0  0  0  0  0  0  0  0  0  0  0
  1  2  1  0      
  1 26  1  0      
  1 32  1  0      
  2  3  2  0      
  2  4  1  0      
  4  5  1  0      
  4 33  1  0      
  5  6  1  0      
  5 10  2  0      
  6  7  2  0      
  6 25  1  0      
  7  8  1  0      
  7 34  1  0      
  8  9  2  0      
  8 24  1  0      
  9 10  1  0      
  9 18  1  0      
 10 35  1  0      
 11 12  2  0      
 16 11  1  0      
 11 21  1  0      
 12 13  1  0      
 13 14  2  0      
 13 20  1  0      
 15 14  1  0      
 17 14  1  0      
 15 16  2  0      
 15 36  1  0      
 18 17  2  0      
 17 37  1  0      
 19 18  1  0      
 20 19  2  0      
 19 23  1  0      
 21 22  1  0      
 21 38  1  0      
 22 39  1  0      
 22 40  1  0      
 22 41  1  0      
 23 42  1  0      
 23 43  1  0      
 23 44  1  0      
 24 45  1  0      
 24 46  1  0      
 24 47  1  0      
 26 27  1  0      
 26 48  1  0      
 26 49  1  0      
 27 28  1  0      
 27 50  1  0      
 27 51  1  0      
 28 29  1  0      
 28 30  1  0      
 28 31  1  0      
 29 52  1  0      
 29 53  1  0      
 29 54  1  0      
 30 55  1  0      
 30 56  1  0      
 30 57  1  0      
 31 58  1  0      
 31 59  1  0      
 31 60  1  0      
M  END
