
  Chem3D Core 15.008161522013D

 58 61  0  0  0  0  0  0  0  0999 V2000
    6.2830   -2.4532   -3.0881 F   0  0  0  0  0  0  0  0  0  0  0  0
    4.2324   -4.2598    0.6419 F   0  0  0  0  0  0  0  0  0  0  0  0
   -0.5321   -0.0868    2.7954 O   0  0  0  0  0  0  0  0  0  0  0  0
   -0.9135    0.6079   -1.8915 O   0  0  0  0  0  0  0  0  0  0  0  0
    1.6050   -4.3280   -4.1761 O   0  0  0  0  0  0  0  0  0  0  0  0
    1.2372   -1.7428   -5.0722 O   0  0  0  0  0  0  0  0  0  0  0  0
   -2.2588    1.3980    3.0320 N   0  0  0  0  0  0  0  0  0  0  0  0
   -0.5651   -0.1924    0.1979 N   0  0  0  0  0  0  0  0  0  0  0  0
    0.9709   -0.8645   -3.0522 N   0  0  0  0  0  0  0  0  0  0  0  0
   -1.6921    0.4920    0.8368 C   0  0  0  0  0  0  0  0  0  0  0  0
   -2.9922   -0.2375    0.6486 C   0  0  0  0  0  0  0  0  0  0  0  0
   -4.1432    0.3985    0.9533 C   0  0  0  0  0  0  0  0  0  0  0  0
   -4.1838    1.6191    1.5513 C   0  0  0  0  0  0  0  0  0  0  0  0
   -1.4446    0.5500    2.3249 C   0  0  0  0  0  0  0  0  0  0  0  0
   -3.3222    2.0759    2.5055 C   0  0  0  0  0  0  0  0  0  0  0  0
   -3.0022   -1.4733    0.1132 C   0  0  0  0  0  0  0  0  0  0  0  0
    0.9528   -0.8616   -1.5834 C   0  0  0  0  0  0  0  0  0  0  0  0
   -5.2859   -0.2556    0.6417 C   0  0  0  0  0  0  0  0  0  0  0  0
   -0.2691   -0.0691   -1.1288 C   0  0  0  0  0  0  0  0  0  0  0  0
   -5.2176    2.4224    1.2051 C   0  0  0  0  0  0  0  0  0  0  0  0
   -3.5737    3.2931    3.0413 C   0  0  0  0  0  0  0  0  0  0  0  0
   -1.8032    1.6922    4.4041 C   0  0  0  0  0  0  0  0  0  0  0  0
   -4.1494   -2.1060   -0.1619 C   0  0  0  0  0  0  0  0  0  0  0  0
   -5.3029   -1.4813    0.0972 C   0  0  0  0  0  0  0  0  0  0  0  0
   -5.4359    3.6308    1.7383 C   0  0  0  0  0  0  0  0  0  0  0  0
   -4.5974    4.0746    2.6763 C   0  0  0  0  0  0  0  0  0  0  0  0
    2.2242   -0.2092   -1.0223 C   0  0  0  0  0  0  0  0  0  0  0  0
    1.2490   -1.9191   -3.8791 C   0  0  0  0  0  0  0  0  0  0  0  0
    1.5631   -3.2669   -3.2222 C   0  0  0  0  0  0  0  0  0  0  0  0
    2.8873   -3.2915   -2.4924 C   0  0  0  0  0  0  0  0  0  0  0  0
    2.9828   -3.7666   -1.2382 C   0  0  0  0  0  0  0  0  0  0  0  0
    4.0061   -2.8630   -3.1029 C   0  0  0  0  0  0  0  0  0  0  0  0
    5.1922   -2.8854   -2.4749 C   0  0  0  0  0  0  0  0  0  0  0  0
    4.1608   -3.7953   -0.5956 C   0  0  0  0  0  0  0  0  0  0  0  0
    5.2636   -3.3512   -1.2182 C   0  0  0  0  0  0  0  0  0  0  0  0
    0.0142   -0.7737    0.8041 H   0  0  0  0  0  0  0  0  0  0  0  0
    0.7196    0.0080   -3.5177 H   0  0  0  0  0  0  0  0  0  0  0  0
    2.0691   -5.0697   -3.7792 H   0  0  0  0  0  0  0  0  0  0  0  0
   -1.7331    1.5352    0.4443 H   0  0  0  0  0  0  0  0  0  0  0  0
   -2.0678   -2.0021   -0.1332 H   0  0  0  0  0  0  0  0  0  0  0  0
    0.8243   -1.8840   -1.1654 H   0  0  0  0  0  0  0  0  0  0  0  0
   -6.2830    0.1498    0.8823 H   0  0  0  0  0  0  0  0  0  0  0  0
   -5.9353    2.1523    0.4118 H   0  0  0  0  0  0  0  0  0  0  0  0
   -2.9195    3.7474    3.8030 H   0  0  0  0  0  0  0  0  0  0  0  0
   -1.4264    0.7812    4.9202 H   0  0  0  0  0  0  0  0  0  0  0  0
   -0.9890    2.4530    4.3994 H   0  0  0  0  0  0  0  0  0  0  0  0
   -2.6337    2.0125    5.0722 H   0  0  0  0  0  0  0  0  0  0  0  0
   -4.1459   -3.1174   -0.6012 H   0  0  0  0  0  0  0  0  0  0  0  0
   -6.2598   -1.9884   -0.1137 H   0  0  0  0  0  0  0  0  0  0  0  0
   -6.2804    4.2573    1.4053 H   0  0  0  0  0  0  0  0  0  0  0  0
   -4.7451    5.0697    3.1287 H   0  0  0  0  0  0  0  0  0  0  0  0
    2.2331   -0.2220    0.0915 H   0  0  0  0  0  0  0  0  0  0  0  0
    3.1395   -0.7391   -1.3673 H   0  0  0  0  0  0  0  0  0  0  0  0
    2.3074    0.8505   -1.3556 H   0  0  0  0  0  0  0  0  0  0  0  0
    0.7097   -3.5293   -2.5570 H   0  0  0  0  0  0  0  0  0  0  0  0
    2.0845   -4.1386   -0.7192 H   0  0  0  0  0  0  0  0  0  0  0  0
    3.9565   -2.4844   -4.1367 H   0  0  0  0  0  0  0  0  0  0  0  0
    6.2340   -3.3728   -0.6958 H   0  0  0  0  0  0  0  0  0  0  0  0
  1 33  1  0      
  2 34  1  0      
  3 14  2  0      
  4 19  2  0      
 29  5  1  0      
  5 38  1  0      
  6 28  2  0      
  7 14  1  0      
  7 15  1  0      
  7 22  1  0      
 10  8  1  0      
  8 19  1  0      
  8 36  1  0      
 17  9  1  0      
  9 28  1  0      
  9 37  1  0      
 10 11  1  0      
 14 10  1  0      
 10 39  1  0      
 11 12  2  0      
 11 16  1  0      
 12 13  1  0      
 18 12  1  0      
 13 15  2  0      
 13 20  1  0      
 21 15  1  0      
 16 23  2  0      
 16 40  1  0      
 17 19  1  0      
 17 27  1  0      
 17 41  1  0      
 24 18  2  0      
 18 42  1  0      
 20 25  2  0      
 20 43  1  0      
 26 21  2  0      
 21 44  1  0      
 22 45  1  0      
 22 46  1  0      
 22 47  1  0      
 23 24  1  0      
 23 48  1  0      
 24 49  1  0      
 25 26  1  0      
 25 50  1  0      
 26 51  1  0      
 27 52  1  0      
 27 53  1  0      
 27 54  1  0      
 28 29  1  0      
 29 30  1  0      
 29 55  1  0      
 30 31  1  0      
 30 32  2  0      
 31 34  2  0      
 31 56  1  0      
 33 32  1  0      
 32 57  1  0      
 35 33  2  0      
 34 35  1  0      
 35 58  1  0      
M  END
