
  Chem3D Core 15.003291616483D

  0  0  0     0  0              0 V3000
M  V30 BEGIN CTAB
M  V30 COUNTS 82 83 0 0 0
M  V30 BEGIN ATOM
M  V30 1 C -2.955433 -0.623855 -3.658439 0
M  V30 2 C -3.300739 -1.196241 -2.243172 0
M  V30 3 N 1.884587 -0.125626 -3.125110 0
M  V30 4 C 3.168082 -1.954211 -2.513643 0
M  V30 5 C 2.441227 -1.316222 -3.479401 0
M  V30 6 C 3.294864 -1.433762 -1.270748 0
M  V30 7 C 3.790662 -0.140869 1.546520 0
M  V30 8 C 4.001220 -1.559556 1.035805 0
M  V30 9 C 3.833805 -2.053147 -0.205165 0
M  V30 10 C -2.048357 -1.287206 -1.339481 0
M  V30 11 C -2.087160 -1.744752 0.127907 0
M  V30 12 C -0.661846 -1.575861 0.708330 0
M  V30 13 C -0.399947 -1.974959 2.173361 0
M  V30 14 C 1.027748 -1.594597 2.531184 0
M  V30 15 C 1.507429 -0.346039 2.702743 0
M  V30 16 C -1.667365 0.220872 -3.610095 0
M  V30 17 C -0.441767 -0.380831 -3.672962 0
M  V30 18 C 0.661971 0.383921 -3.398410 0
M  V30 19 C 0.522438 1.695354 -3.140049 0
M  V30 20 C -0.671324 2.338977 -3.163643 0
M  V30 21 C -1.748699 1.544891 -3.381046 0
M  V30 22 O -0.767460 3.531559 -2.950953 0
M  V30 23 O 2.264890 -1.758230 -4.590450 0
M  V30 24 C 3.749109 -3.299509 -2.917291 0
M  V30 25 C 5.227799 0.414920 1.661783 0
M  V30 26 C 3.010492 -0.121201 2.881871 0
M  V30 27 O 3.306525 0.970282 3.729159 0
M  V30 28 C 3.308621 2.261753 3.305156 0
M  V30 29 N 3.687106 3.199272 4.209540 0
M  V30 30 O 3.011239 2.624073 2.194743 0
M  V30 31 C 0.614901 0.875142 2.655457 0
M  V30 32 C -0.699319 -3.436772 2.547221 0
M  V30 33 O 0.368017 -1.973336 -0.166932 0
M  V30 34 O -2.979889 -0.902469 0.814144 0
M  V30 35 C -3.937688 -1.588437 1.589353 0
M  V30 36 C -3.931992 -2.600313 -2.327163 0
M  V30 37 O -0.372104 -1.581662 -3.855679 0
M  V30 38 C 0.468379 -3.357083 -0.417070 0
M  V30 39 O -3.993364 0.177913 -4.190273 0
M  V30 40 C -5.179230 -0.503556 -4.527880 0
M  V30 41 H -2.792376 -1.455499 -4.382431 0
M  V30 42 H -4.014216 -0.496812 -1.741954 0
M  V30 43 H 2.363588 0.446504 -2.447423 0
M  V30 44 H 2.892445 -0.432907 -1.062348 0
M  V30 45 H 3.239915 0.469745 0.796981 0
M  V30 46 H 4.445828 -2.246095 1.780879 0
M  V30 47 H 4.168650 -3.097465 -0.312803 0
M  V30 48 H -1.576811 -0.277067 -1.302091 0
M  V30 49 H -1.378966 -2.010677 -1.853223 0
M  V30 50 H -2.417802 -2.804229 0.185542 0
M  V30 51 H -0.532277 -0.461141 0.703900 0
M  V30 52 H -1.091100 -1.376606 2.817404 0
M  V30 53 H 1.745506 -2.431519 2.547235 0
M  V30 54 H 1.417169 2.288555 -2.877752 0
M  V30 55 H -2.735088 2.034052 -3.320178 0
M  V30 56 H 4.517936 -3.707782 -2.230711 0
M  V30 57 H 2.937855 -4.057595 -3.008397 0
M  V30 58 H 4.277648 -3.227722 -3.894989 0
M  V30 59 H 5.779064 0.300215 0.699787 0
M  V30 60 H 5.269141 1.498538 1.899333 0
M  V30 61 H 5.805802 -0.118684 2.450666 0
M  V30 62 H 3.389170 -0.992655 3.474824 0
M  V30 63 H 3.699813 4.164175 3.914419 0
M  V30 64 H 3.942505 2.908402 5.141550 0
M  V30 65 H -0.471515 0.655451 2.676487 0
M  V30 66 H 0.775504 1.524004 3.543694 0
M  V30 67 H 0.803501 1.456957 1.726354 0
M  V30 68 H -0.626245 -3.580351 3.650176 0
M  V30 69 H -1.724869 -3.743252 2.246592 0
M  V30 70 H 0.005596 -4.164175 2.094821 0
M  V30 71 H -4.580542 -0.828914 2.087737 0
M  V30 72 H -4.580306 -2.221899 0.939166 0
M  V30 73 H -3.441183 -2.198121 2.374171 0
M  V30 74 H -4.239267 -2.968727 -1.323725 0
M  V30 75 H -4.842869 -2.637365 -2.959318 0
M  V30 76 H -3.213703 -3.338382 -2.750820 0
M  V30 77 H 1.175440 -3.818704 0.305097 0
M  V30 78 H -0.519562 -3.860498 -0.393097 0
M  V30 79 H 0.901926 -3.490747 -1.433013 0
M  V30 80 H -5.805802 0.189299 -5.133037 0
M  V30 81 H -4.962075 -1.404852 -5.141550 0
M  V30 82 H -5.753255 -0.753167 -3.609950 0
M  V30 END ATOM
M  V30 BEGIN BOND
M  V30 1 1 1 2
M  V30 2 1 1 16
M  V30 3 1 1 39
M  V30 4 1 1 41
M  V30 5 1 2 10
M  V30 6 1 2 36
M  V30 7 1 2 42
M  V30 8 1 3 5
M  V30 9 1 3 18
M  V30 10 1 3 43
M  V30 11 1 4 5
M  V30 12 2 4 6
M  V30 13 1 4 24
M  V30 14 2 5 23
M  V30 15 1 6 9
M  V30 16 1 6 44
M  V30 17 1 7 8
M  V30 18 1 7 25
M  V30 19 1 7 26
M  V30 20 1 7 45
M  V30 21 2 8 9
M  V30 22 1 8 46
M  V30 23 1 9 47
M  V30 24 1 10 11
M  V30 25 1 10 48
M  V30 26 1 10 49
M  V30 27 1 11 12
M  V30 28 1 11 34
M  V30 29 1 11 50
M  V30 30 1 12 13
M  V30 31 1 12 33
M  V30 32 1 12 51
M  V30 33 1 13 14
M  V30 34 1 13 32
M  V30 35 1 13 52
M  V30 36 2 14 15
M  V30 37 1 14 53
M  V30 38 1 15 26
M  V30 39 1 15 31
M  V30 40 1 16 17
M  V30 41 2 16 21
M  V30 42 1 17 18
M  V30 43 2 17 37
M  V30 44 2 18 19
M  V30 45 1 19 20
M  V30 46 1 19 54
M  V30 47 1 20 21
M  V30 48 2 20 22
M  V30 49 1 21 55
M  V30 50 1 24 56
M  V30 51 1 24 57
M  V30 52 1 24 58
M  V30 53 1 25 59
M  V30 54 1 25 60
M  V30 55 1 25 61
M  V30 56 1 26 27
M  V30 57 1 26 62
M  V30 58 1 27 28
M  V30 59 1 28 29
M  V30 60 2 28 30
M  V30 61 1 29 63
M  V30 62 1 29 64
M  V30 63 1 31 65
M  V30 64 1 31 66
M  V30 65 1 31 67
M  V30 66 1 32 68
M  V30 67 1 32 69
M  V30 68 1 32 70
M  V30 69 1 33 38
M  V30 70 1 34 35
M  V30 71 1 35 71
M  V30 72 1 35 72
M  V30 73 1 35 73
M  V30 74 1 36 74
M  V30 75 1 36 75
M  V30 76 1 36 76
M  V30 77 1 38 77
M  V30 78 1 38 78
M  V30 79 1 38 79
M  V30 80 1 39 40
M  V30 81 1 40 80
M  V30 82 1 40 81
M  V30 83 1 40 82
M  V30 END BOND
M  V30 END CTAB
M  END
