
  Chem3D Core 15.001061617033D

 66 70  0  0  0  0  0  0  0  0999 V2000
    7.3278    2.3251    3.7002 C   0  0  0  0  0  0  0  0  0  0  0  0
    7.0454    2.7057    2.3250 N   0  0  0  0  0  0  0  0  0  0  0  0
    6.2341    1.7018    1.6548 C   0  0  0  0  0  0  0  0  0  0  0  0
    5.9588    2.1035    0.1962 C   0  0  0  0  0  0  0  0  0  0  0  0
    5.2905    3.3953    0.1292 N   0  0  0  0  0  0  0  0  0  0  0  0
    5.0006    3.7871   -1.2457 C   0  0  0  0  0  0  0  0  0  0  0  0
    3.9671    2.8668   -1.8639 C   0  0  0  0  0  0  0  0  0  0  0  0
    2.7236    2.8014   -1.3599 C   0  0  0  0  0  0  0  0  0  0  0  0
    1.8015    1.9845   -1.8924 C   0  0  0  0  0  0  0  0  0  0  0  0
    2.0855    1.2168   -2.9616 C   0  0  0  0  0  0  0  0  0  0  0  0
    3.3420    1.2612   -3.4454 C   0  0  0  0  0  0  0  0  0  0  0  0
    4.2628    2.0791   -2.9114 C   0  0  0  0  0  0  0  0  0  0  0  0
    1.1616    0.3737   -3.5063 C   0  0  0  0  0  0  0  0  0  0  0  0
    1.4813   -0.5761   -4.1814 O   0  0  0  0  0  0  0  0  0  0  0  0
   -0.1772    0.5973   -3.4064 N   0  0  0  0  0  0  0  0  0  0  0  0
   -0.9715    1.6778   -3.2595 C   0  0  0  0  0  0  0  0  0  0  0  0
   -0.5758    2.9544   -3.3698 C   0  0  0  0  0  0  0  0  0  0  0  0
   -1.4627    3.9468   -3.2161 C   0  0  0  0  0  0  0  0  0  0  0  0
   -2.7630    3.7043   -2.9705 C   0  0  0  0  0  0  0  0  0  0  0  0
   -3.6986    4.8881   -2.8137 C   0  0  0  0  0  0  0  0  0  0  0  0
   -3.1884    2.4229   -2.8898 C   0  0  0  0  0  0  0  0  0  0  0  0
   -4.4290    2.2223   -2.6718 N   0  0  0  0  0  0  0  0  0  0  0  0
   -5.1671    1.1972   -2.5381 C   0  0  0  0  0  0  0  0  0  0  0  0
   -4.8700   -0.0322   -2.5844 N   0  0  0  0  0  0  0  0  0  0  0  0
   -5.8785   -0.7744   -2.4050 C   0  0  0  0  0  0  0  0  0  0  0  0
   -6.9489    0.0150   -2.2209 C   0  0  0  0  0  0  0  0  0  0  0  0
   -6.5934    1.4319   -2.2886 S   0  0  0  0  0  0  0  0  0  0  0  0
   -5.8295   -2.1224   -2.4080 C   0  0  0  0  0  0  0  0  0  0  0  0
   -4.6687   -2.7783   -2.6089 C   0  0  0  0  0  0  0  0  0  0  0  0
   -4.6548   -4.1199   -2.6060 C   0  0  0  0  0  0  0  0  0  0  0  0
   -5.8116   -4.7656   -2.4004 C   0  0  0  0  0  0  0  0  0  0  0  0
   -6.9111   -4.1712   -2.2098 N   0  0  0  0  0  0  0  0  0  0  0  0
   -6.9113   -2.9045   -2.2151 C   0  0  0  0  0  0  0  0  0  0  0  0
   -2.2784    1.4415   -3.0462 C   0  0  0  0  0  0  0  0  0  0  0  0
    6.1038    4.3980    0.8013 C   0  0  0  0  0  0  0  0  0  0  0  0
    6.3789    3.9968    2.2600 C   0  0  0  0  0  0  0  0  0  0  0  0
    7.9828    3.0798    4.1930 H   0  0  0  0  0  0  0  0  0  0  0  0
    7.8738    1.3545    3.7379 H   0  0  0  0  0  0  0  0  0  0  0  0
    6.3971    2.2246    4.3042 H   0  0  0  0  0  0  0  0  0  0  0  0
    6.7620    0.7176    1.6617 H   0  0  0  0  0  0  0  0  0  0  0  0
    5.2622    1.5584    2.1856 H   0  0  0  0  0  0  0  0  0  0  0  0
    6.9219    2.1259   -0.3682 H   0  0  0  0  0  0  0  0  0  0  0  0
    5.3243    1.3113   -0.2683 H   0  0  0  0  0  0  0  0  0  0  0  0
    4.5661    4.8151   -1.2733 H   0  0  0  0  0  0  0  0  0  0  0  0
    5.9328    3.8249   -1.8551 H   0  0  0  0  0  0  0  0  0  0  0  0
    2.4609    3.4145   -0.4815 H   0  0  0  0  0  0  0  0  0  0  0  0
    0.8187    1.9456   -1.3947 H   0  0  0  0  0  0  0  0  0  0  0  0
    3.6537    0.6428   -4.3042 H   0  0  0  0  0  0  0  0  0  0  0  0
    5.2786    2.0972   -3.3402 H   0  0  0  0  0  0  0  0  0  0  0  0
   -0.7402   -0.2341   -3.5050 H   0  0  0  0  0  0  0  0  0  0  0  0
    0.4639    3.2198   -3.6161 H   0  0  0  0  0  0  0  0  0  0  0  0
   -1.1034    4.9852   -3.3139 H   0  0  0  0  0  0  0  0  0  0  0  0
   -3.1806    5.8682   -2.9081 H   0  0  0  0  0  0  0  0  0  0  0  0
   -4.4894    4.8728   -3.5981 H   0  0  0  0  0  0  0  0  0  0  0  0
   -4.1769    4.8818   -1.8076 H   0  0  0  0  0  0  0  0  0  0  0  0
   -4.9702    3.1183   -2.5809 H   0  0  0  0  0  0  0  0  0  0  0  0
   -7.9828   -0.3038   -2.0388 H   0  0  0  0  0  0  0  0  0  0  0  0
   -3.7144   -2.2528   -2.7784 H   0  0  0  0  0  0  0  0  0  0  0  0
   -3.7183   -4.6784   -2.7679 H   0  0  0  0  0  0  0  0  0  0  0  0
   -5.8387   -5.8682   -2.3910 H   0  0  0  0  0  0  0  0  0  0  0  0
   -7.9115   -2.4755   -2.0413 H   0  0  0  0  0  0  0  0  0  0  0  0
   -2.5715    0.3837   -2.9939 H   0  0  0  0  0  0  0  0  0  0  0  0
    5.5770    5.3830    0.7998 H   0  0  0  0  0  0  0  0  0  0  0  0
    7.0744    4.5421    0.2686 H   0  0  0  0  0  0  0  0  0  0  0  0
    5.4149    3.9741    2.8229 H   0  0  0  0  0  0  0  0  0  0  0  0
    7.0186    4.7810    2.7325 H   0  0  0  0  0  0  0  0  0  0  0  0
  1  2  1  0      
  1 37  1  0      
  1 38  1  0      
  1 39  1  0      
  2  3  1  0      
  2 36  1  0      
  3  4  1  0      
  3 40  1  0      
  3 41  1  0      
  4  5  1  0      
  4 42  1  0      
  4 43  1  0      
  5  6  1  0      
  5 35  1  0      
  6  7  1  0      
  6 44  1  0      
  6 45  1  0      
  7  8  1  0      
  7 12  2  0      
  8  9  2  0      
  8 46  1  0      
  9 10  1  0      
  9 47  1  0      
 10 11  2  0      
 10 13  1  0      
 11 12  1  0      
 11 48  1  0      
 12 49  1  0      
 13 14  2  0      
 13 15  1  0      
 15 16  1  0      
 15 50  1  0      
 16 17  1  0      
 16 34  2  0      
 17 18  2  0      
 17 51  1  0      
 18 19  1  0      
 18 52  1  0      
 19 20  1  0      
 19 21  2  0      
 20 53  1  0      
 20 54  1  0      
 20 55  1  0      
 21 22  1  0      
 21 34  1  0      
 22 23  1  0      
 22 56  1  0      
 23 24  2  0      
 27 23  1  0      
 25 24  1  0      
 25 26  2  0      
 25 28  1  0      
 26 27  1  0      
 26 57  1  0      
 28 29  1  0      
 28 33  2  0      
 29 30  2  0      
 29 58  1  0      
 30 31  1  0      
 30 59  1  0      
 31 32  2  0      
 31 60  1  0      
 32 33  1  0      
 33 61  1  0      
 34 62  1  0      
 35 36  1  0      
 35 63  1  0      
 35 64  1  0      
 36 65  1  0      
 36 66  1  0      
M  END
