
  Chem3D Core 15.003291609583D

 35 37  0  0  0  0  0  0  0  0999 V2000
   -2.3943    3.0424    1.7455 O   0  0  0  0  0  0  0  0  0  0  0  0
    4.6014   -2.9406   -2.3532 O   0  0  0  0  0  0  0  0  0  0  0  0
    2.3837   -2.7486   -2.3942 O   0  0  0  0  0  0  0  0  0  0  0  0
    1.2309   -0.6907   -0.6945 N   0  0  0  0  0  0  0  0  0  0  0  0
    2.7471    0.2846    0.3537 N   0  0  0  0  0  0  0  0  0  0  0  0
    3.4781   -1.3460   -1.0307 N   0  0  0  0  0  0  0  0  0  0  0  0
    0.6986    0.1882    0.0437 C   0  0  0  0  0  0  0  0  0  0  0  0
    1.6626    0.8262    0.7121 C   0  0  0  0  0  0  0  0  0  0  0  0
   -0.9332    1.5183    1.0579 C   0  0  0  0  0  0  0  0  0  0  0  0
    2.4816   -0.6238   -0.4901 C   0  0  0  0  0  0  0  0  0  0  0  0
   -0.5859    0.5340    0.1980 C   0  0  0  0  0  0  0  0  0  0  0  0
   -2.2287    1.9359    1.2602 C   0  0  0  0  0  0  0  0  0  0  0  0
    1.3760    1.8255    1.5467 C   0  0  0  0  0  0  0  0  0  0  0  0
    0.0813    2.1611    1.6901 C   0  0  0  0  0  0  0  0  0  0  0  0
   -3.3495    1.2000    0.9549 C   0  0  0  0  0  0  0  0  0  0  0  0
    3.4376   -2.3593   -1.9437 C   0  0  0  0  0  0  0  0  0  0  0  0
   -3.3611   -0.1398    0.7914 C   0  0  0  0  0  0  0  0  0  0  0  0
   -4.5542    1.8103    0.8814 C   0  0  0  0  0  0  0  0  0  0  0  0
   -4.4824   -0.8202    0.5021 C   0  0  0  0  0  0  0  0  0  0  0  0
   -5.6832    1.1442    0.5903 C   0  0  0  0  0  0  0  0  0  0  0  0
   -5.6525   -0.1790    0.3866 C   0  0  0  0  0  0  0  0  0  0  0  0
    5.8074   -2.4589   -1.8073 C   0  0  0  0  0  0  0  0  0  0  0  0
    3.6962    0.5556    0.6962 H   0  0  0  0  0  0  0  0  0  0  0  0
    4.3763   -1.0573   -0.6757 H   0  0  0  0  0  0  0  0  0  0  0  0
   -1.2902    0.0185   -0.4694 H   0  0  0  0  0  0  0  0  0  0  0  0
    2.1777    2.3527    2.0881 H   0  0  0  0  0  0  0  0  0  0  0  0
   -0.0986    2.9914    2.3942 H   0  0  0  0  0  0  0  0  0  0  0  0
   -2.4770   -0.7707    0.9648 H   0  0  0  0  0  0  0  0  0  0  0  0
   -4.6751    2.8974    1.0258 H   0  0  0  0  0  0  0  0  0  0  0  0
   -4.4533   -1.9180    0.3924 H   0  0  0  0  0  0  0  0  0  0  0  0
   -6.6436    1.6830    0.5199 H   0  0  0  0  0  0  0  0  0  0  0  0
   -6.5777   -0.7341    0.1601 H   0  0  0  0  0  0  0  0  0  0  0  0
    6.6436   -3.0424   -2.2539 H   0  0  0  0  0  0  0  0  0  0  0  0
    5.9458   -1.3854   -2.0672 H   0  0  0  0  0  0  0  0  0  0  0  0
    5.8183   -2.6109   -0.7047 H   0  0  0  0  0  0  0  0  0  0  0  0
  1 12  2  0      
  2 16  1  0      
  2 22  1  0      
  3 16  2  0      
  4  7  1  0      
 10  4  2  0      
  5  8  1  0      
  5 10  1  0      
  5 23  1  0      
  6 10  1  0      
  6 16  1  0      
  6 24  1  0      
  7  8  1  0      
  7 11  2  0      
 13  8  2  0      
 11  9  1  0      
  9 12  1  0      
  9 14  2  0      
 11 25  1  0      
 12 15  1  0      
 14 13  1  0      
 13 26  1  0      
 14 27  1  0      
 15 17  1  0      
 15 18  2  0      
 17 19  2  0      
 17 28  1  0      
 20 18  1  0      
 18 29  1  0      
 19 21  1  0      
 19 30  1  0      
 21 20  2  0      
 20 31  1  0      
 21 32  1  0      
 22 33  1  0      
 22 34  1  0      
 22 35  1  0      
M  END
