
  Chem3D Core 15.003291610583D

 55 58  0  0  0  0  0  0  0  0999 V2000
    4.3511    4.5397   -4.8050 Cl  0  0  0  0  0  0  0  0  0  0  0  0
    3.3056    3.2208   -4.4551 C   0  0  0  0  0  0  0  0  0  0  0  0
    3.8403    1.9762   -4.1226 C   0  0  0  0  0  0  0  0  0  0  0  0
    2.9919    0.9060   -3.8388 C   0  0  0  0  0  0  0  0  0  0  0  0
    1.6089    1.0805   -3.8874 C   0  0  0  0  0  0  0  0  0  0  0  0
    1.0742    2.3251   -4.2198 C   0  0  0  0  0  0  0  0  0  0  0  0
    1.9226    3.3953   -4.5037 C   0  0  0  0  0  0  0  0  0  0  0  0
    0.6984   -0.0681   -3.5828 C   0  0  0  0  0  0  0  0  0  0  0  0
    1.5146   -1.2804   -3.2585 C   0  0  0  0  0  0  0  0  0  0  0  0
    1.3011   -2.4710   -3.9530 C   0  0  0  0  0  0  0  0  0  0  0  0
    2.0615   -3.6006   -3.6508 C   0  0  0  0  0  0  0  0  0  0  0  0
    3.0355   -3.5395   -2.6542 C   0  0  0  0  0  0  0  0  0  0  0  0
    3.2491   -2.3489   -1.9599 C   0  0  0  0  0  0  0  0  0  0  0  0
    2.4886   -1.2193   -2.2620 C   0  0  0  0  0  0  0  0  0  0  0  0
   -0.1320    0.2649   -2.4570 N   0  0  0  0  0  0  0  0  0  0  0  0
   -1.5294    0.1975   -2.9195 C   0  0  0  0  0  0  0  0  0  0  0  0
   -2.5508    0.2804   -1.7647 C   0  0  0  0  0  0  0  0  0  0  0  0
   -2.3285   -0.7412   -0.7264 N   0  0  0  0  0  0  0  0  0  0  0  0
   -0.9310   -0.6739   -0.2638 C   0  0  0  0  0  0  0  0  0  0  0  0
    0.0903   -0.7566   -1.4186 C   0  0  0  0  0  0  0  0  0  0  0  0
   -3.1739   -0.3993    0.3855 C   0  0  0  0  0  0  0  0  0  0  0  0
   -2.9925   -1.4054    1.4791 C   0  0  0  0  0  0  0  0  0  0  0  0
   -4.0018   -2.3287    1.7517 C   0  0  0  0  0  0  0  0  0  0  0  0
   -3.8328   -3.2660    2.7708 C   0  0  0  0  0  0  0  0  0  0  0  0
   -2.6545   -3.2800    3.5170 C   0  0  0  0  0  0  0  0  0  0  0  0
   -1.6452   -2.3568    3.2444 C   0  0  0  0  0  0  0  0  0  0  0  0
   -1.8142   -1.4194    2.2253 C   0  0  0  0  0  0  0  0  0  0  0  0
   -0.3805   -2.3719    4.0453 C   0  0  0  0  0  0  0  0  0  0  0  0
    4.9310    1.8386   -4.0842 H   0  0  0  0  0  0  0  0  0  0  0  0
    3.4135   -0.0756   -3.5767 H   0  0  0  0  0  0  0  0  0  0  0  0
   -0.0165    2.4627   -4.2581 H   0  0  0  0  0  0  0  0  0  0  0  0
    1.5010    4.3769   -4.7659 H   0  0  0  0  0  0  0  0  0  0  0  0
    0.0577   -0.2784   -4.4682 H   0  0  0  0  0  0  0  0  0  0  0  0
    0.5330   -2.5192   -4.7390 H   0  0  0  0  0  0  0  0  0  0  0  0
    1.8931   -4.5397   -4.1984 H   0  0  0  0  0  0  0  0  0  0  0  0
    3.6352   -4.4303   -2.4160 H   0  0  0  0  0  0  0  0  0  0  0  0
    4.0173   -2.3007   -1.1740 H   0  0  0  0  0  0  0  0  0  0  0  0
    2.6570   -0.2803   -1.7144 H   0  0  0  0  0  0  0  0  0  0  0  0
   -1.7133    1.0453   -3.6168 H   0  0  0  0  0  0  0  0  0  0  0  0
   -1.6686   -0.7879   -3.4177 H   0  0  0  0  0  0  0  0  0  0  0  0
   -2.4735    1.2863   -1.2947 H   0  0  0  0  0  0  0  0  0  0  0  0
   -3.5600    0.1010   -2.1985 H   0  0  0  0  0  0  0  0  0  0  0  0
   -0.7472   -1.5218    0.4333 H   0  0  0  0  0  0  0  0  0  0  0  0
   -0.7918    0.3115    0.2346 H   0  0  0  0  0  0  0  0  0  0  0  0
    0.0132   -1.7625   -1.8886 H   0  0  0  0  0  0  0  0  0  0  0  0
    1.0994   -0.5769   -0.9847 H   0  0  0  0  0  0  0  0  0  0  0  0
   -4.2370   -0.3980    0.0559 H   0  0  0  0  0  0  0  0  0  0  0  0
   -2.9003    0.6115    0.7624 H   0  0  0  0  0  0  0  0  0  0  0  0
   -4.9310   -2.3177    1.1631 H   0  0  0  0  0  0  0  0  0  0  0  0
   -4.6287   -3.9942    2.9859 H   0  0  0  0  0  0  0  0  0  0  0  0
   -2.5212   -4.0192    4.3207 H   0  0  0  0  0  0  0  0  0  0  0  0
   -1.0183   -0.6912    2.0103 H   0  0  0  0  0  0  0  0  0  0  0  0
   -0.4316   -3.1837    4.8050 H   0  0  0  0  0  0  0  0  0  0  0  0
    0.4845   -2.5518    3.3684 H   0  0  0  0  0  0  0  0  0  0  0  0
   -0.2543   -1.3919    4.5576 H   0  0  0  0  0  0  0  0  0  0  0  0
  1  2  1  0      
  2  3  1  0      
  2  7  2  0      
  3  4  2  0      
  3 29  1  0      
  4  5  1  0      
  4 30  1  0      
  5  6  2  0      
  5  8  1  0      
  6  7  1  0      
  6 31  1  0      
  7 32  1  0      
  8  9  1  0      
  8 15  1  0      
  8 33  1  0      
  9 10  1  0      
  9 14  2  0      
 10 11  2  0      
 10 34  1  0      
 11 12  1  0      
 11 35  1  0      
 12 13  2  0      
 12 36  1  0      
 13 14  1  0      
 13 37  1  0      
 14 38  1  0      
 15 16  1  0      
 15 20  1  0      
 16 17  1  0      
 16 39  1  0      
 16 40  1  0      
 17 18  1  0      
 17 41  1  0      
 17 42  1  0      
 18 19  1  0      
 18 21  1  0      
 19 20  1  0      
 19 43  1  0      
 19 44  1  0      
 20 45  1  0      
 20 46  1  0      
 21 22  1  0      
 21 47  1  0      
 21 48  1  0      
 22 23  1  0      
 22 27  2  0      
 23 24  2  0      
 23 49  1  0      
 24 25  1  0      
 24 50  1  0      
 25 26  2  0      
 25 51  1  0      
 26 27  1  0      
 26 28  1  0      
 27 52  1  0      
 28 53  1  0      
 28 54  1  0      
 28 55  1  0      
M  END
