
  Chem3D Core 15.010191517283D

 42 44  0  0  0  0  0  0  0  0999 V2000
    5.0573   -2.8223   -2.4010 F   0  0  0  0  0  0  0  0  0  0  0  0
    4.9936   -1.4394   -0.7843 F   0  0  0  0  0  0  0  0  0  0  0  0
    5.0098   -0.7327   -2.8024 F   0  0  0  0  0  0  0  0  0  0  0  0
    2.6669    3.7022   -0.1014 F   0  0  0  0  0  0  0  0  0  0  0  0
    4.1068    2.9625   -1.4922 F   0  0  0  0  0  0  0  0  0  0  0  0
    4.0874    2.2353    0.5167 F   0  0  0  0  0  0  0  0  0  0  0  0
   -1.6271    2.0109   -1.4291 O   0  0  0  0  0  0  0  0  0  0  0  0
    2.9560    0.4319   -1.2770 N   0  0  0  0  0  0  0  0  0  0  0  0
   -3.3162    0.1143    0.0283 N   0  0  0  0  0  0  0  0  0  0  0  0
    2.2977   -0.5869   -1.6409 C   0  0  0  0  0  0  0  0  0  0  0  0
    0.9457   -0.5824   -1.6510 C   0  0  0  0  0  0  0  0  0  0  0  0
    0.2887    0.5352   -1.2672 C   0  0  0  0  0  0  0  0  0  0  0  0
    3.0097   -1.6744   -2.0155 C   0  0  0  0  0  0  0  0  0  0  0  0
    2.3808    1.4924   -0.9038 C   0  0  0  0  0  0  0  0  0  0  0  0
   -1.2285    0.6681   -1.2315 C   0  0  0  0  0  0  0  0  0  0  0  0
    1.0441    1.5803   -0.8853 C   0  0  0  0  0  0  0  0  0  0  0  0
   -1.8488    0.0890    0.0495 C   0  0  0  0  0  0  0  0  0  0  0  0
    4.5302   -1.6750   -2.0034 C   0  0  0  0  0  0  0  0  0  0  0  0
    3.3133    2.6145   -0.4897 C   0  0  0  0  0  0  0  0  0  0  0  0
    0.3132   -1.7039   -2.0441 C   0  0  0  0  0  0  0  0  0  0  0  0
    2.3397   -2.7735   -2.4040 C   0  0  0  0  0  0  0  0  0  0  0  0
    1.0010   -2.7912   -2.4182 C   0  0  0  0  0  0  0  0  0  0  0  0
   -1.3000    0.6280    1.3834 C   0  0  0  0  0  0  0  0  0  0  0  0
   -3.9553    1.3608    0.4501 C   0  0  0  0  0  0  0  0  0  0  0  0
   -1.9160    1.9704    1.7932 C   0  0  0  0  0  0  0  0  0  0  0  0
   -3.4433    1.8422    1.8127 C   0  0  0  0  0  0  0  0  0  0  0  0
   -1.5738   -0.9985    0.0284 H   0  0  0  0  0  0  0  0  0  0  0  0
   -2.5532    2.0215   -1.6740 H   0  0  0  0  0  0  0  0  0  0  0  0
   -3.6491   -0.1246   -0.9394 H   0  0  0  0  0  0  0  0  0  0  0  0
   -1.6660    0.1541   -2.1192 H   0  0  0  0  0  0  0  0  0  0  0  0
    0.5759    2.5166   -0.5468 H   0  0  0  0  0  0  0  0  0  0  0  0
   -0.7838   -1.7854   -2.0753 H   0  0  0  0  0  0  0  0  0  0  0  0
    2.8741   -3.6847   -2.7174 H   0  0  0  0  0  0  0  0  0  0  0  0
    0.4662   -3.7022   -2.7371 H   0  0  0  0  0  0  0  0  0  0  0  0
   -0.1890    0.7012    1.3626 H   0  0  0  0  0  0  0  0  0  0  0  0
   -1.5389   -0.1104    2.1879 H   0  0  0  0  0  0  0  0  0  0  0  0
   -5.0573    1.1923    0.5042 H   0  0  0  0  0  0  0  0  0  0  0  0
   -3.8101    2.1567   -0.3118 H   0  0  0  0  0  0  0  0  0  0  0  0
   -1.6060    2.7743    1.0876 H   0  0  0  0  0  0  0  0  0  0  0  0
   -1.5453    2.2705    2.8024 H   0  0  0  0  0  0  0  0  0  0  0  0
   -3.9078    2.8227    2.0746 H   0  0  0  0  0  0  0  0  0  0  0  0
   -3.7463    1.1121    2.6009 H   0  0  0  0  0  0  0  0  0  0  0  0
  1 18  1  0      
  2 18  1  0      
  3 18  1  0      
  4 19  1  0      
  5 19  1  0      
  6 19  1  0      
 15  7  1  0      
  7 28  1  0      
 10  8  1  0      
 14  8  2  0      
  9 17  1  0      
  9 24  1  0      
  9 29  1  0      
 11 10  1  0      
 13 10  2  0      
 12 11  1  0      
 11 20  2  0      
 12 15  1  0      
 16 12  2  0      
 13 18  1  0      
 21 13  1  0      
 14 16  1  0      
 14 19  1  0      
 15 17  1  0      
 15 30  1  0      
 16 31  1  0      
 17 23  1  0      
 17 27  1  0      
 20 22  1  0      
 20 32  1  0      
 22 21  2  0      
 21 33  1  0      
 22 34  1  0      
 23 25  1  0      
 23 35  1  0      
 23 36  1  0      
 26 24  1  0      
 24 37  1  0      
 24 38  1  0      
 25 26  1  0      
 25 39  1  0      
 25 40  1  0      
 26 41  1  0      
 26 42  1  0      
M  END
