
  Chem3D Core 14.008141513373D

 42 44  0  0  0  0  0  0  0  0999 V2000
   -0.9649   -1.1888    1.1384 F   0  0  0  0  0  0  0  0  0  0  0  0
    0.0810   -1.7057   -1.6832 C   0  0  0  0  0  0  0  0  0  0  0  0
    1.0807   -1.2242   -0.8976 C   0  0  0  0  0  0  0  0  0  0  0  0
    0.3670   -2.6033   -2.6589 C   0  0  0  0  0  0  0  0  0  0  0  0
    2.3251   -1.7412   -1.0039 C   0  0  0  0  0  0  0  0  0  0  0  0
    1.6087   -3.0935   -2.7670 C   0  0  0  0  0  0  0  0  0  0  0  0
    2.5640   -2.6730   -1.9292 C   0  0  0  0  0  0  0  0  0  0  0  0
    2.0769   -3.9550   -3.5725 N   0  0  0  0  0  0  0  0  0  0  0  0
    3.2996   -4.0853   -3.2679 C   0  0  0  0  0  0  0  0  0  0  0  0
    3.5838   -3.3227   -2.2988 N   0  0  0  0  0  0  0  0  0  0  0  0
   -1.1717   -1.4635   -1.6722 N   0  0  0  0  0  0  0  0  0  0  0  0
   -2.0784   -0.9889   -0.9121 C   0  0  0  0  0  0  0  0  0  0  0  0
   -3.2576   -0.7326   -1.5142 C   0  0  0  0  0  0  0  0  0  0  0  0
   -2.0048   -0.7902    0.4213 C   0  0  0  0  0  0  0  0  0  0  0  0
   -4.2968   -0.2069   -0.8472 C   0  0  0  0  0  0  0  0  0  0  0  0
   -3.0462   -0.2739    1.0962 C   0  0  0  0  0  0  0  0  0  0  0  0
   -4.1852    0.0454    0.4646 C   0  0  0  0  0  0  0  0  0  0  0  0
   -0.5674   -3.0599   -3.4854 F   0  0  0  0  0  0  0  0  0  0  0  0
   -5.6450    0.7708    1.4260 Br  0  0  0  0  0  0  0  0  0  0  0  0
    4.9143   -3.2068   -1.6927 C   0  0  0  0  0  0  0  0  0  0  0  0
    0.9320   -0.1442   -0.0730 C   0  0  0  0  0  0  0  0  0  0  0  0
    1.7695   -0.1114    1.0180 N   0  0  0  0  0  0  0  0  0  0  0  0
    0.0857    0.7085   -0.2209 O   0  0  0  0  0  0  0  0  0  0  0  0
    1.7423    0.8037    1.9679 O   0  0  0  0  0  0  0  0  0  0  0  0
    2.5339    1.9232    1.6682 C   0  0  0  0  0  0  0  0  0  0  0  0
    2.3649    2.9567    2.7660 C   0  0  0  0  0  0  0  0  0  0  0  0
    3.1999    4.0642    2.4956 O   0  0  0  0  0  0  0  0  0  0  0  0
    3.1892   -1.3854   -0.4217 H   0  0  0  0  0  0  0  0  0  0  0  0
    4.0196   -4.7482   -3.7601 H   0  0  0  0  0  0  0  0  0  0  0  0
   -1.6093   -1.7846   -2.5758 H   0  0  0  0  0  0  0  0  0  0  0  0
   -3.3949   -0.9181   -2.5946 H   0  0  0  0  0  0  0  0  0  0  0  0
   -5.2328    0.0113   -1.3885 H   0  0  0  0  0  0  0  0  0  0  0  0
   -2.9590   -0.1401    2.1877 H   0  0  0  0  0  0  0  0  0  0  0  0
    5.6450   -3.9077   -2.1558 H   0  0  0  0  0  0  0  0  0  0  0  0
    5.3084   -2.1729   -1.8214 H   0  0  0  0  0  0  0  0  0  0  0  0
    4.8667   -3.4414   -0.6048 H   0  0  0  0  0  0  0  0  0  0  0  0
    2.4104   -0.8839    1.1212 H   0  0  0  0  0  0  0  0  0  0  0  0
    3.5991    1.6005    1.5972 H   0  0  0  0  0  0  0  0  0  0  0  0
    2.2180    2.3518    0.6888 H   0  0  0  0  0  0  0  0  0  0  0  0
    1.3175    3.3299    2.8174 H   0  0  0  0  0  0  0  0  0  0  0  0
    2.6585    2.5510    3.7601 H   0  0  0  0  0  0  0  0  0  0  0  0
    3.0475    4.7482    3.1518 H   0  0  0  0  0  0  0  0  0  0  0  0
  1 14  1  0      
  2  3  2  0      
  4  2  1  0      
  2 11  1  0      
  3  5  1  0      
  3 21  1  0      
  6  4  2  0      
  4 18  1  0      
  5  7  2  0      
  5 28  1  0      
  6  7  1  0      
  8  6  1  0      
 10  7  1  0      
  9  8  2  0      
 10  9  1  0      
  9 29  1  0      
 10 20  1  0      
 11 12  1  0      
 11 30  1  0      
 12 13  1  0      
 12 14  2  0      
 13 15  2  0      
 13 31  1  0      
 16 14  1  0      
 15 17  1  0      
 15 32  1  0      
 17 16  2  0      
 16 33  1  0      
 17 19  1  0      
 20 34  1  0      
 20 35  1  0      
 20 36  1  0      
 21 22  1  0      
 21 23  2  0      
 22 24  1  0      
 22 37  1  0      
 24 25  1  0      
 25 26  1  0      
 25 38  1  0      
 25 39  1  0      
 26 27  1  0      
 26 40  1  0      
 26 41  1  0      
 27 42  1  0      
M  END
