
  Chem3D Core 15.001061617173D

 55 57  0  0  0  0  0  0  0  0999 V2000
    2.1993   -5.3123   -2.3926 O   0  0  0  0  0  0  0  0  0  0  0  0
    2.0963   -0.1886   -3.0795 O   0  0  0  0  0  0  0  0  0  0  0  0
    2.5748   -4.1843   -0.4509 O   0  0  0  0  0  0  0  0  0  0  0  0
    3.6853   -0.5150   -5.6348 O   0  0  0  0  0  0  0  0  0  0  0  0
    4.4464   -2.3964   -6.6605 O   0  0  0  0  0  0  0  0  0  0  0  0
    2.1910    3.2330    2.0588 N   0  0  0  0  0  0  0  0  0  0  0  0
    2.2373   -1.7970   -1.5363 N   0  0  0  0  0  0  0  0  0  0  0  0
    0.9241    1.1865    4.5657 N   0  0  0  0  0  0  0  0  0  0  0  0
   -1.3479    2.4757    4.1455 N   0  0  0  0  0  0  0  0  0  0  0  0
   -2.4282    0.8641    5.1564 N   0  0  0  0  0  0  0  0  0  0  0  0
   -1.3830   -0.9069    5.9877 N   0  0  0  0  0  0  0  0  0  0  0  0
    0.8058   -1.1359    5.8383 N   0  0  0  0  0  0  0  0  0  0  0  0
   -3.5558   -0.7203    6.1565 N   0  0  0  0  0  0  0  0  0  0  0  0
    2.2185   -2.9291   -2.4773 C   0  0  0  0  0  0  0  0  0  0  0  0
    3.2986   -2.8317   -3.5746 C   0  0  0  0  0  0  0  0  0  0  0  0
    2.1854    2.3477    1.1303 C   0  0  0  0  0  0  0  0  0  0  0  0
    2.7196   -2.5667   -4.9771 C   0  0  0  0  0  0  0  0  0  0  0  0
    2.2567    2.8269    3.4898 C   0  0  0  0  0  0  0  0  0  0  0  0
    2.1678    0.4303   -0.8955 C   0  0  0  0  0  0  0  0  0  0  0  0
    2.1579   -0.4829   -1.9101 C   0  0  0  0  0  0  0  0  0  0  0  0
    2.2327    1.0204    1.3720 C   0  0  0  0  0  0  0  0  0  0  0  0
    2.1298    2.6652   -0.1810 C   0  0  0  0  0  0  0  0  0  0  0  0
    2.3639   -4.2012   -1.6447 C   0  0  0  0  0  0  0  0  0  0  0  0
    2.2246    0.0889    0.4039 C   0  0  0  0  0  0  0  0  0  0  0  0
    2.1205    1.7476   -1.1619 C   0  0  0  0  0  0  0  0  0  0  0  0
    0.9214    2.2952    3.9566 C   0  0  0  0  0  0  0  0  0  0  0  0
    2.1310    4.6747    1.6958 C   0  0  0  0  0  0  0  0  0  0  0  0
    3.7189   -1.8463   -5.8642 C   0  0  0  0  0  0  0  0  0  0  0  0
   -0.2392    2.9380    3.7528 C   0  0  0  0  0  0  0  0  0  0  0  0
   -0.1787    0.7040    4.9645 C   0  0  0  0  0  0  0  0  0  0  0  0
   -1.3362    1.3613    4.7506 C   0  0  0  0  0  0  0  0  0  0  0  0
   -0.2533   -0.4745    5.6127 C   0  0  0  0  0  0  0  0  0  0  0  0
   -2.4443   -0.2496    5.7631 C   0  0  0  0  0  0  0  0  0  0  0  0
    2.0524   -5.1028   -3.3286 H   0  0  0  0  0  0  0  0  0  0  0  0
    3.0354   -0.2754   -4.9557 H   0  0  0  0  0  0  0  0  0  0  0  0
    2.3038   -2.0400   -0.5489 H   0  0  0  0  0  0  0  0  0  0  0  0
    1.7411   -0.7773    5.5262 H   0  0  0  0  0  0  0  0  0  0  0  0
    0.7547   -2.0552    6.3421 H   0  0  0  0  0  0  0  0  0  0  0  0
   -3.5937   -1.6403    6.6605 H   0  0  0  0  0  0  0  0  0  0  0  0
   -4.4464   -0.1930    5.9812 H   0  0  0  0  0  0  0  0  0  0  0  0
    1.1966   -2.9896   -2.9221 H   0  0  0  0  0  0  0  0  0  0  0  0
    4.0268   -2.0340   -3.2984 H   0  0  0  0  0  0  0  0  0  0  0  0
    3.9131   -3.7613   -3.6188 H   0  0  0  0  0  0  0  0  0  0  0  0
    2.4340   -3.5356   -5.4500 H   0  0  0  0  0  0  0  0  0  0  0  0
    1.7828   -1.9668   -4.9523 H   0  0  0  0  0  0  0  0  0  0  0  0
    3.1102    2.1397    3.6840 H   0  0  0  0  0  0  0  0  0  0  0  0
    2.4870    3.7119    4.1270 H   0  0  0  0  0  0  0  0  0  0  0  0
    2.2802    0.6148    2.3939 H   0  0  0  0  0  0  0  0  0  0  0  0
    2.0886    3.7096   -0.5295 H   0  0  0  0  0  0  0  0  0  0  0  0
    2.2650   -0.9604    0.7373 H   0  0  0  0  0  0  0  0  0  0  0  0
    2.0734    2.1218   -2.1991 H   0  0  0  0  0  0  0  0  0  0  0  0
    3.0331    4.9874    1.1221 H   0  0  0  0  0  0  0  0  0  0  0  0
    1.1936    4.9207    1.1468 H   0  0  0  0  0  0  0  0  0  0  0  0
    2.1134    5.3123    2.6072 H   0  0  0  0  0  0  0  0  0  0  0  0
   -0.2650    3.9062    3.2280 H   0  0  0  0  0  0  0  0  0  0  0  0
  1 23  1  0      
  1 34  1  0      
  2 20  2  0      
  3 23  2  0      
  4 28  1  0      
  4 35  1  0      
  5 28  2  0      
  6 16  1  0      
  6 18  1  0      
  6 27  1  0      
 14  7  1  0      
  7 20  1  0      
  7 36  1  0      
 26  8  2  0      
 30  8  1  0      
 29  9  2  0      
  9 31  1  0      
 31 10  2  0      
 10 33  1  0      
 11 32  1  0      
 33 11  2  0      
 12 32  1  0      
 12 37  1  0      
 12 38  1  0      
 13 33  1  0      
 13 39  1  0      
 13 40  1  0      
 14 15  1  0      
 14 23  1  0      
 14 41  1  0      
 15 17  1  0      
 15 42  1  0      
 15 43  1  0      
 16 21  1  0      
 16 22  2  0      
 17 28  1  0      
 17 44  1  0      
 17 45  1  0      
 18 26  1  0      
 18 46  1  0      
 18 47  1  0      
 19 20  1  0      
 24 19  1  0      
 19 25  2  0      
 21 24  2  0      
 21 48  1  0      
 25 22  1  0      
 22 49  1  0      
 24 50  1  0      
 25 51  1  0      
 26 29  1  0      
 27 52  1  0      
 27 53  1  0      
 27 54  1  0      
 29 55  1  0      
 31 30  1  0      
 32 30  2  0      
M  END
