
  Chem3D Core 15.003291611133D

 44 44  0  0  0  0  0  0  0  0999 V2000
    0.6762    1.1747   -0.8755 O   0  0  0  0  0  0  0  0  0  0  0  0
    1.7021    3.1329   -2.5803 O   0  0  0  0  0  0  0  0  0  0  0  0
   -2.7774   -5.4628    0.8878 O   0  0  0  0  0  0  0  0  0  0  0  0
    1.5634    5.0919    0.1801 N   0  0  0  0  0  0  0  0  0  0  0  0
    1.7683    3.7420   -0.2714 C   0  0  0  0  0  0  0  0  0  0  0  0
    0.8921    3.4744   -1.4881 C   0  0  0  0  0  0  0  0  0  0  0  0
    2.4063    5.3022    1.3261 C   0  0  0  0  0  0  0  0  0  0  0  0
   -0.0613    2.3265   -1.1836 C   0  0  0  0  0  0  0  0  0  0  0  0
    2.2210    6.7241    1.8392 C   0  0  0  0  0  0  0  0  0  0  0  0
    2.0278    4.3145    2.4219 C   0  0  0  0  0  0  0  0  0  0  0  0
   -0.1479    0.1351   -0.5997 C   0  0  0  0  0  0  0  0  0  0  0  0
   -1.8446   -2.0052   -0.0320 C   0  0  0  0  0  0  0  0  0  0  0  0
   -2.7551   -3.1538    0.2726 C   0  0  0  0  0  0  0  0  0  0  0  0
    0.3868   -1.1095   -0.2672 C   0  0  0  0  0  0  0  0  0  0  0  0
   -1.5309    0.3096   -0.6483 C   0  0  0  0  0  0  0  0  0  0  0  0
   -0.4616   -2.1797    0.0166 C   0  0  0  0  0  0  0  0  0  0  0  0
   -2.3793   -0.7606   -0.3644 C   0  0  0  0  0  0  0  0  0  0  0  0
   -1.9247   -4.3872    0.6025 C   0  0  0  0  0  0  0  0  0  0  0  0
   -1.9585   -6.5621    1.1819 C   0  0  0  0  0  0  0  0  0  0  0  0
    1.8278    5.7418   -0.5602 H   0  0  0  0  0  0  0  0  0  0  0  0
    1.1267    2.9758   -3.3094 H   0  0  0  0  0  0  0  0  0  0  0  0
    1.4972    3.0338    0.5433 H   0  0  0  0  0  0  0  0  0  0  0  0
    2.8376    3.6011   -0.5462 H   0  0  0  0  0  0  0  0  0  0  0  0
    0.3060    4.3885   -1.7325 H   0  0  0  0  0  0  0  0  0  0  0  0
    3.4700    5.1478    1.0374 H   0  0  0  0  0  0  0  0  0  0  0  0
   -0.7007    2.1301   -2.0732 H   0  0  0  0  0  0  0  0  0  0  0  0
   -0.7040    2.5983   -0.3165 H   0  0  0  0  0  0  0  0  0  0  0  0
    2.8734    6.8869    2.7262 H   0  0  0  0  0  0  0  0  0  0  0  0
    2.4976    7.4460    1.0385 H   0  0  0  0  0  0  0  0  0  0  0  0
    1.1573    6.8786    2.1279 H   0  0  0  0  0  0  0  0  0  0  0  0
    2.6796    4.4765    3.3094 H   0  0  0  0  0  0  0  0  0  0  0  0
    2.1638    3.2754    2.0471 H   0  0  0  0  0  0  0  0  0  0  0  0
    0.9639    4.4698    2.7098 H   0  0  0  0  0  0  0  0  0  0  0  0
   -3.3979   -2.8960    1.1439 H   0  0  0  0  0  0  0  0  0  0  0  0
   -3.3958   -3.3641   -0.6129 H   0  0  0  0  0  0  0  0  0  0  0  0
    1.4775   -1.2471   -0.2288 H   0  0  0  0  0  0  0  0  0  0  0  0
   -1.9526    1.2912   -0.9105 H   0  0  0  0  0  0  0  0  0  0  0  0
   -0.0400   -3.1613    0.2787 H   0  0  0  0  0  0  0  0  0  0  0  0
   -3.4700   -0.6230   -0.4027 H   0  0  0  0  0  0  0  0  0  0  0  0
   -1.2847   -4.1767    1.4884 H   0  0  0  0  0  0  0  0  0  0  0  0
   -1.2813   -4.6448   -0.2684 H   0  0  0  0  0  0  0  0  0  0  0  0
   -2.5931   -7.4460    1.4164 H   0  0  0  0  0  0  0  0  0  0  0  0
   -1.3153   -6.7907    0.3028 H   0  0  0  0  0  0  0  0  0  0  0  0
   -1.3173   -6.3226    2.0596 H   0  0  0  0  0  0  0  0  0  0  0  0
  1  8  1  0      
  1 11  1  0      
  2  6  1  0      
  2 21  1  0      
  3 18  1  0      
  3 19  1  0      
  4  5  1  0      
  4  7  1  0      
  4 20  1  0      
  5  6  1  0      
  5 22  1  0      
  5 23  1  0      
  6  8  1  0      
  6 24  1  0      
  7  9  1  0      
  7 10  1  0      
  7 25  1  0      
  8 26  1  0      
  8 27  1  0      
  9 28  1  0      
  9 29  1  0      
  9 30  1  0      
 10 31  1  0      
 10 32  1  0      
 10 33  1  0      
 11 14  1  0      
 11 15  2  0      
 12 13  1  0      
 16 12  1  0      
 12 17  2  0      
 13 18  1  0      
 13 34  1  0      
 13 35  1  0      
 14 16  2  0      
 14 36  1  0      
 17 15  1  0      
 15 37  1  0      
 16 38  1  0      
 17 39  1  0      
 18 40  1  0      
 18 41  1  0      
 19 42  1  0      
 19 43  1  0      
 19 44  1  0      
M  END
