
  Chem3D Core 15.010021516233D

 74 77  0  0  0  0  0  0  0  0999 V2000
   -5.0952   -6.6610    3.1429 F   0  0  0  0  0  0  0  0  0  0  0  0
   -2.4884   -3.1181   -2.3063 O   0  0  0  0  0  0  0  0  0  0  0  0
   -1.4260   -1.5897   -3.6953 O   0  0  0  0  0  0  0  0  0  0  0  0
   -2.6189   -4.6405   -4.5905 O   0  0  0  0  0  0  0  0  0  0  0  0
    0.8197   -0.5088    0.3953 N   0  0  0  0  0  0  0  0  0  0  0  0
    3.5790    3.1684    2.9366 N   0  0  0  0  0  0  0  0  0  0  0  0
    4.0301    2.5164    4.8740 N   0  0  0  0  0  0  0  0  0  0  0  0
   -1.9341   -2.9023   -1.0371 C   0  0  0  0  0  0  0  0  0  0  0  0
   -3.0850   -2.5431   -0.0432 C   0  0  0  0  0  0  0  0  0  0  0  0
   -3.6020   -3.6975    0.8231 C   0  0  0  0  0  0  0  0  0  0  0  0
   -3.3334   -4.9910    0.5524 C   0  0  0  0  0  0  0  0  0  0  0  0
   -1.3319   -4.2716   -0.6624 C   0  0  0  0  0  0  0  0  0  0  0  0
   -4.2986   -1.7259   -0.5855 C   0  0  0  0  0  0  0  0  0  0  0  0
   -0.7813   -1.8707   -1.0048 C   0  0  0  0  0  0  0  0  0  0  0  0
   -2.4168   -5.3518   -0.5863 C   0  0  0  0  0  0  0  0  0  0  0  0
   -4.3549   -3.4337    1.9101 C   0  0  0  0  0  0  0  0  0  0  0  0
   -3.8380   -5.9676    1.3277 C   0  0  0  0  0  0  0  0  0  0  0  0
   -4.6086   -5.6893    2.3883 C   0  0  0  0  0  0  0  0  0  0  0  0
   -2.1613   -2.5280   -3.4903 C   0  0  0  0  0  0  0  0  0  0  0  0
   -4.8583   -4.4069    2.6832 C   0  0  0  0  0  0  0  0  0  0  0  0
    0.0706   -1.7630    0.2829 C   0  0  0  0  0  0  0  0  0  0  0  0
   -3.9302   -0.4409   -1.3450 C   0  0  0  0  0  0  0  0  0  0  0  0
   -5.3474   -2.5533   -1.3536 C   0  0  0  0  0  0  0  0  0  0  0  0
    4.2523    4.0681    3.5179 C   0  0  0  0  0  0  0  0  0  0  0  0
    4.5486    3.6643    4.7600 C   0  0  0  0  0  0  0  0  0  0  0  0
    3.4528    2.2280    3.7793 C   0  0  0  0  0  0  0  0  0  0  0  0
   -2.8920   -3.2516   -4.6214 C   0  0  0  0  0  0  0  0  0  0  0  0
    4.6647    5.2636    3.0781 C   0  0  0  0  0  0  0  0  0  0  0  0
    5.2564    4.4172    5.6076 C   0  0  0  0  0  0  0  0  0  0  0  0
    1.5003   -0.4499    1.6898 C   0  0  0  0  0  0  0  0  0  0  0  0
    2.7001    0.9709    3.4351 C   0  0  0  0  0  0  0  0  0  0  0  0
    2.2226    0.8812    1.9754 C   0  0  0  0  0  0  0  0  0  0  0  0
    5.3782    6.0336    3.9189 C   0  0  0  0  0  0  0  0  0  0  0  0
    5.6704    5.6176    5.1656 C   0  0  0  0  0  0  0  0  0  0  0  0
    1.7468   -0.3299   -0.7135 C   0  0  0  0  0  0  0  0  0  0  0  0
   -3.2522   -5.3350   -5.6420 C   0  0  0  0  0  0  0  0  0  0  0  0
    4.0726    1.9119    5.7253 H   0  0  0  0  0  0  0  0  0  0  0  0
   -2.6181   -1.8593    0.7082 H   0  0  0  0  0  0  0  0  0  0  0  0
   -0.5624   -4.5683   -1.4151 H   0  0  0  0  0  0  0  0  0  0  0  0
   -0.8191   -4.2348    0.3263 H   0  0  0  0  0  0  0  0  0  0  0  0
   -4.8569   -1.3381    0.3080 H   0  0  0  0  0  0  0  0  0  0  0  0
   -0.0528   -2.1515   -1.8027 H   0  0  0  0  0  0  0  0  0  0  0  0
   -1.1963   -0.8587   -1.2165 H   0  0  0  0  0  0  0  0  0  0  0  0
   -1.9274   -6.3387   -0.4092 H   0  0  0  0  0  0  0  0  0  0  0  0
   -3.0068   -5.4427   -1.5261 H   0  0  0  0  0  0  0  0  0  0  0  0
   -4.5779   -2.3930    2.1960 H   0  0  0  0  0  0  0  0  0  0  0  0
   -3.6120   -7.0229    1.1029 H   0  0  0  0  0  0  0  0  0  0  0  0
   -5.4748   -4.1551    3.5621 H   0  0  0  0  0  0  0  0  0  0  0  0
   -0.5999   -1.8545    1.1671 H   0  0  0  0  0  0  0  0  0  0  0  0
    0.7769   -2.6254    0.3386 H   0  0  0  0  0  0  0  0  0  0  0  0
   -4.8346    0.1762   -1.5517 H   0  0  0  0  0  0  0  0  0  0  0  0
   -3.2336    0.1951   -0.7532 H   0  0  0  0  0  0  0  0  0  0  0  0
   -3.4649   -0.6486   -2.3298 H   0  0  0  0  0  0  0  0  0  0  0  0
   -6.2574   -1.9448   -1.5613 H   0  0  0  0  0  0  0  0  0  0  0  0
   -5.6823   -3.4430   -0.7751 H   0  0  0  0  0  0  0  0  0  0  0  0
   -4.9853   -2.9159   -2.3374 H   0  0  0  0  0  0  0  0  0  0  0  0
   -2.5580   -2.8348   -5.5988 H   0  0  0  0  0  0  0  0  0  0  0  0
   -3.9864   -3.0795   -4.5107 H   0  0  0  0  0  0  0  0  0  0  0  0
    4.4251    5.6027    2.0577 H   0  0  0  0  0  0  0  0  0  0  0  0
    5.4883    4.0642    6.6246 H   0  0  0  0  0  0  0  0  0  0  0  0
    0.7448   -0.5841    2.5020 H   0  0  0  0  0  0  0  0  0  0  0  0
    2.2325   -1.2868    1.7871 H   0  0  0  0  0  0  0  0  0  0  0  0
    3.3684    0.1055    3.6579 H   0  0  0  0  0  0  0  0  0  0  0  0
    1.8246    0.9053    4.1234 H   0  0  0  0  0  0  0  0  0  0  0  0
    3.1177    0.9813    1.3171 H   0  0  0  0  0  0  0  0  0  0  0  0
    1.5285    1.7274    1.7554 H   0  0  0  0  0  0  0  0  0  0  0  0
    5.7295    7.0229    3.5797 H   0  0  0  0  0  0  0  0  0  0  0  0
    6.2574    6.2690    5.8349 H   0  0  0  0  0  0  0  0  0  0  0  0
    2.2543    0.6581   -0.6696 H   0  0  0  0  0  0  0  0  0  0  0  0
    1.2225   -0.3183   -1.6938 H   0  0  0  0  0  0  0  0  0  0  0  0
    2.5225   -1.1289   -0.7359 H   0  0  0  0  0  0  0  0  0  0  0  0
   -2.9979   -6.4139   -5.5425 H   0  0  0  0  0  0  0  0  0  0  0  0
   -4.3563   -5.2179   -5.5698 H   0  0  0  0  0  0  0  0  0  0  0  0
   -2.8813   -4.9680   -6.6246 H   0  0  0  0  0  0  0  0  0  0  0  0
  1 18  1  0      
  8  2  1  0      
  2 19  1  0      
  3 19  2  0      
  4 27  1  0      
  4 36  1  0      
  5 21  1  0      
  5 30  1  0      
  5 35  1  0      
  6 24  1  0      
 26  6  2  0      
  7 25  1  0      
  7 26  1  0      
  7 37  1  0      
  8  9  1  0      
  8 12  1  0      
  8 14  1  0      
  9 10  1  0      
  9 13  1  0      
  9 38  1  0      
 10 11  2  0      
 10 16  1  0      
 11 15  1  0      
 17 11  1  0      
 15 12  1  0      
 12 39  1  0      
 12 40  1  0      
 13 22  1  0      
 13 23  1  0      
 13 41  1  0      
 14 21  1  0      
 14 42  1  0      
 14 43  1  0      
 15 44  1  0      
 15 45  1  0      
 16 20  2  0      
 16 46  1  0      
 18 17  2  0      
 17 47  1  0      
 20 18  1  0      
 19 27  1  0      
 20 48  1  0      
 21 49  1  0      
 21 50  1  0      
 22 51  1  0      
 22 52  1  0      
 22 53  1  0      
 23 54  1  0      
 23 55  1  0      
 23 56  1  0      
 24 25  1  0      
 24 28  2  0      
 29 25  2  0      
 26 31  1  0      
 27 57  1  0      
 27 58  1  0      
 28 33  1  0      
 28 59  1  0      
 34 29  1  0      
 29 60  1  0      
 30 32  1  0      
 30 61  1  0      
 30 62  1  0      
 31 32  1  0      
 31 63  1  0      
 31 64  1  0      
 32 65  1  0      
 32 66  1  0      
 33 34  2  0      
 33 67  1  0      
 34 68  1  0      
 35 69  1  0      
 35 70  1  0      
 35 71  1  0      
 36 72  1  0      
 36 73  1  0      
 36 74  1  0      
M  END
