
  Chem3D Core 15.003281610463D

 39 41  0  0  0  0  0  0  0  0999 V2000
    5.5283    0.2036    0.2363 Cl  0  0  0  0  0  0  0  0  0  0  0  0
    3.8705    0.2327   -0.2478 C   0  0  0  0  0  0  0  0  0  0  0  0
    3.2304    1.4034   -0.3836 C   0  0  0  0  0  0  0  0  0  0  0  0
    1.9424    1.4172   -0.7591 C   0  0  0  0  0  0  0  0  0  0  0  0
    1.2693    0.2780   -1.0070 C   0  0  0  0  0  0  0  0  0  0  0  0
    1.9242   -0.8915   -0.8630 C   0  0  0  0  0  0  0  0  0  0  0  0
    3.2149   -0.9139   -0.4871 C   0  0  0  0  0  0  0  0  0  0  0  0
    1.1364   -2.4060   -1.1504 Cl  0  0  0  0  0  0  0  0  0  0  0  0
   -0.1886    0.3496   -1.4234 C   0  0  0  0  0  0  0  0  0  0  0  0
   -1.0055   -0.0266   -0.3309 O   0  0  0  0  0  0  0  0  0  0  0  0
   -2.3945    0.0702   -0.5798 C   0  0  0  0  0  0  0  0  0  0  0  0
   -3.0985   -1.2217   -0.1661 C   0  0  0  0  0  0  0  0  0  0  0  0
   -2.7022   -1.8468    0.9597 C   0  0  0  0  0  0  0  0  0  0  0  0
   -3.2749   -2.9847    1.3797 C   0  0  0  0  0  0  0  0  0  0  0  0
   -4.2769   -3.5233    0.6703 C   0  0  0  0  0  0  0  0  0  0  0  0
   -4.6974   -2.9116   -0.4476 C   0  0  0  0  0  0  0  0  0  0  0  0
   -4.1160   -1.7716   -0.8610 C   0  0  0  0  0  0  0  0  0  0  0  0
   -4.7328   -1.0458   -2.3066 Cl  0  0  0  0  0  0  0  0  0  0  0  0
   -5.0264   -4.9865    1.2000 Cl  0  0  0  0  0  0  0  0  0  0  0  0
   -2.9794    1.2483    0.2124 C   0  0  0  0  0  0  0  0  0  0  0  0
   -2.3861    2.5286   -0.1979 N   0  0  0  0  0  0  0  0  0  0  0  0
   -2.7687    3.2035   -1.1974 C   0  0  0  0  0  0  0  0  0  0  0  0
   -2.0691    4.2544   -1.2970 N   0  0  0  0  0  0  0  0  0  0  0  0
   -1.2511    4.2056   -0.3279 C   0  0  0  0  0  0  0  0  0  0  0  0
   -1.4320    3.0975    0.4071 C   0  0  0  0  0  0  0  0  0  0  0  0
    3.7487    2.3573   -0.1885 H   0  0  0  0  0  0  0  0  0  0  0  0
    1.4345    2.3910   -0.8596 H   0  0  0  0  0  0  0  0  0  0  0  0
    3.7419   -1.8764   -0.3721 H   0  0  0  0  0  0  0  0  0  0  0  0
   -0.4552    1.3804   -1.7458 H   0  0  0  0  0  0  0  0  0  0  0  0
   -0.3797   -0.3249   -2.2882 H   0  0  0  0  0  0  0  0  0  0  0  0
   -2.5507    0.2576   -1.6648 H   0  0  0  0  0  0  0  0  0  0  0  0
   -1.8859   -1.4231    1.5684 H   0  0  0  0  0  0  0  0  0  0  0  0
   -2.9170   -3.4636    2.3066 H   0  0  0  0  0  0  0  0  0  0  0  0
   -5.5283   -3.3517   -1.0251 H   0  0  0  0  0  0  0  0  0  0  0  0
   -4.0846    1.2886    0.0624 H   0  0  0  0  0  0  0  0  0  0  0  0
   -2.8254    1.0860    1.3050 H   0  0  0  0  0  0  0  0  0  0  0  0
   -3.5824    2.8983   -1.8646 H   0  0  0  0  0  0  0  0  0  0  0  0
   -0.5017    4.9865   -0.1439 H   0  0  0  0  0  0  0  0  0  0  0  0
   -0.9235    2.7201    1.2988 H   0  0  0  0  0  0  0  0  0  0  0  0
  1  2  1  0      
  2  3  1  0      
  2  7  2  0      
  3  4  2  0      
  3 26  1  0      
  4  5  1  0      
  4 27  1  0      
  5  6  2  0      
  5  9  1  0      
  6  7  1  0      
  6  8  1  0      
  7 28  1  0      
  9 10  1  0      
  9 29  1  0      
  9 30  1  0      
 10 11  1  0      
 11 12  1  0      
 11 20  1  0      
 11 31  1  0      
 12 13  1  0      
 12 17  2  0      
 13 14  2  0      
 13 32  1  0      
 14 15  1  0      
 14 33  1  0      
 15 16  2  0      
 15 19  1  0      
 16 17  1  0      
 16 34  1  0      
 17 18  1  0      
 20 21  1  0      
 20 35  1  0      
 20 36  1  0      
 21 22  1  0      
 25 21  1  0      
 22 23  2  0      
 22 37  1  0      
 24 23  1  0      
 24 25  2  0      
 24 38  1  0      
 25 39  1  0      
M  END
