
  Chem3D Core 15.003291611183D

 39 42  0  0  0  0  0  0  0  0999 V2000
    0.6300    0.1078    0.6476 N   0  0  0  0  0  0  0  0  0  0  0  0
    2.7763    0.5306    0.6367 N   0  0  0  0  0  0  0  0  0  0  0  0
    0.1881   -2.1155   -0.4786 N   0  0  0  0  0  0  0  0  0  0  0  0
   -0.1220    0.2794   -0.6038 C   0  0  0  0  0  0  0  0  0  0  0  0
    1.5845    0.9395    0.6476 C   0  0  0  0  0  0  0  0  0  0  0  0
   -1.3717    1.0652   -0.3551 C   0  0  0  0  0  0  0  0  0  0  0  0
    1.3279    2.2516    0.6476 C   0  0  0  0  0  0  0  0  0  0  0  0
   -1.3592    2.1774    0.3869 C   0  0  0  0  0  0  0  0  0  0  0  0
   -0.0949    2.6892    1.0039 C   0  0  0  0  0  0  0  0  0  0  0  0
   -0.4835   -1.0722   -1.2054 C   0  0  0  0  0  0  0  0  0  0  0  0
    0.2166   -0.9150    1.6191 C   0  0  0  0  0  0  0  0  0  0  0  0
   -2.5190    0.6271   -0.8836 C   0  0  0  0  0  0  0  0  0  0  0  0
    2.2932    3.1215    0.3329 C   0  0  0  0  0  0  0  0  0  0  0  0
   -2.4940    2.8514    0.6003 C   0  0  0  0  0  0  0  0  0  0  0  0
   -0.2580   -2.1748    0.9070 C   0  0  0  0  0  0  0  0  0  0  0  0
    3.6505    1.4379    0.6378 C   0  0  0  0  0  0  0  0  0  0  0  0
   -3.6519    1.3071   -0.6792 C   0  0  0  0  0  0  0  0  0  0  0  0
    3.5150    2.6793    0.0181 C   0  0  0  0  0  0  0  0  0  0  0  0
   -3.6413    2.4132    0.0718 C   0  0  0  0  0  0  0  0  0  0  0  0
   -0.1920   -3.3485   -1.1135 C   0  0  0  0  0  0  0  0  0  0  0  0
    0.5245    0.8322   -1.3215 H   0  0  0  0  0  0  0  0  0  0  0  0
   -0.1122    3.7886    0.8312 H   0  0  0  0  0  0  0  0  0  0  0  0
   -0.1829    2.2339    2.0156 H   0  0  0  0  0  0  0  0  0  0  0  0
   -0.1661   -1.1000   -2.2718 H   0  0  0  0  0  0  0  0  0  0  0  0
   -1.5842   -1.2245   -1.1414 H   0  0  0  0  0  0  0  0  0  0  0  0
    1.0816   -1.1689    2.2718 H   0  0  0  0  0  0  0  0  0  0  0  0
   -0.6227   -0.5110    2.2284 H   0  0  0  0  0  0  0  0  0  0  0  0
   -2.5309   -0.2929   -1.4866 H   0  0  0  0  0  0  0  0  0  0  0  0
    2.0821    4.2011    0.3328 H   0  0  0  0  0  0  0  0  0  0  0  0
   -2.4837    3.7664    1.2107 H   0  0  0  0  0  0  0  0  0  0  0  0
    0.1751   -3.0722    1.4028 H   0  0  0  0  0  0  0  0  0  0  0  0
   -1.3682   -2.2427    0.9488 H   0  0  0  0  0  0  0  0  0  0  0  0
    4.5926    1.2351    1.1682 H   0  0  0  0  0  0  0  0  0  0  0  0
   -4.5926    0.9565   -1.1288 H   0  0  0  0  0  0  0  0  0  0  0  0
    4.2630    3.1919   -0.6047 H   0  0  0  0  0  0  0  0  0  0  0  0
   -4.5764    2.9627    0.2548 H   0  0  0  0  0  0  0  0  0  0  0  0
    0.2990   -4.2011   -0.5932 H   0  0  0  0  0  0  0  0  0  0  0  0
    0.1285   -3.3306   -2.1792 H   0  0  0  0  0  0  0  0  0  0  0  0
   -1.2973   -3.4679   -1.0595 H   0  0  0  0  0  0  0  0  0  0  0  0
  1  4  1  0      
  1  5  1  0      
  1 11  1  0      
  2  5  2  0      
  2 16  1  0      
  3 10  1  0      
  3 15  1  0      
  3 20  1  0      
  4  6  1  0      
  4 10  1  0      
  4 21  1  0      
  5  7  1  0      
  6  8  2  0      
  6 12  1  0      
  7  9  1  0      
  7 13  2  0      
  8  9  1  0      
  8 14  1  0      
  9 22  1  0      
  9 23  1  0      
 10 24  1  0      
 10 25  1  0      
 11 15  1  0      
 11 26  1  0      
 11 27  1  0      
 12 17  2  0      
 12 28  1  0      
 13 18  1  0      
 13 29  1  0      
 14 19  2  0      
 14 30  1  0      
 15 31  1  0      
 15 32  1  0      
 16 18  2  0      
 16 33  1  0      
 17 19  1  0      
 17 34  1  0      
 18 35  1  0      
 19 36  1  0      
 20 37  1  0      
 20 38  1  0      
 20 39  1  0      
M  END
