
  Chem3D Core 15.008161522183D

 50 52  0  0  0  0  0  0  0  0999 V2000
    3.1124    1.8711    3.2534 C   0  0  0  0  0  0  0  0  0  0  0  0
    4.2486    1.3884    2.7260 C   0  0  0  0  0  0  0  0  0  0  0  0
    4.2465    0.1904    2.1207 C   0  0  0  0  0  0  0  0  0  0  0  0
    3.1091   -0.5180    2.0405 C   0  0  0  0  0  0  0  0  0  0  0  0
    1.9635   -0.0361    2.5534 C   0  0  0  0  0  0  0  0  0  0  0  0
    1.9777    1.1585    3.1696 C   0  0  0  0  0  0  0  0  0  0  0  0
    5.7091    2.3041    2.8297 Cl  0  0  0  0  0  0  0  0  0  0  0  0
    0.4484   -0.9830    2.4375 S   0  0  0  0  0  0  0  0  0  0  0  0
    0.6034   -2.3765    2.0248 O   0  0  0  0  0  0  0  0  0  0  0  0
   -0.6301   -0.6075    3.3418 O   0  0  0  0  0  0  0  0  0  0  0  0
   -0.4144   -0.4855    0.8069 C   0  0  0  0  0  0  0  0  0  0  0  0
   -1.7845   -1.2026    0.6856 C   0  0  0  0  0  0  0  0  0  0  0  0
   -3.0019   -0.6004    1.4082 C   0  0  0  0  0  0  0  0  0  0  0  0
   -3.1753    0.9041    1.1521 C   0  0  0  0  0  0  0  0  0  0  0  0
   -1.8668    1.5921    1.5626 C   0  0  0  0  0  0  0  0  0  0  0  0
   -0.6467    1.0496    0.8039 C   0  0  0  0  0  0  0  0  0  0  0  0
    0.5841   -0.8810   -0.3193 C   0  0  0  0  0  0  0  0  0  0  0  0
    1.5916   -0.0489   -0.6609 C   0  0  0  0  0  0  0  0  0  0  0  0
    2.4993   -0.3317   -1.6080 C   0  0  0  0  0  0  0  0  0  0  0  0
    2.4215   -1.4967   -2.2623 C   0  0  0  0  0  0  0  0  0  0  0  0
    1.4374   -2.3486   -1.9483 C   0  0  0  0  0  0  0  0  0  0  0  0
    0.5375   -2.0520   -0.9958 C   0  0  0  0  0  0  0  0  0  0  0  0
    3.4655    0.5296   -1.8857 F   0  0  0  0  0  0  0  0  0  0  0  0
   -0.3880   -2.9669   -0.7615 F   0  0  0  0  0  0  0  0  0  0  0  0
   -3.6343    1.1980   -0.2910 C   0  0  0  0  0  0  0  0  0  0  0  0
   -3.9593    2.6765   -0.5552 C   0  0  0  0  0  0  0  0  0  0  0  0
   -4.5548    2.8857   -1.9353 C   0  0  0  0  0  0  0  0  0  0  0  0
   -5.7091    3.1245   -2.1965 O   0  0  0  0  0  0  0  0  0  0  0  0
   -3.6173    2.7821   -2.8983 O   0  0  0  0  0  0  0  0  0  0  0  0
    3.0973    2.8521    3.7575 H   0  0  0  0  0  0  0  0  0  0  0  0
    5.1714   -0.2228    1.6843 H   0  0  0  0  0  0  0  0  0  0  0  0
    3.1324   -1.4996    1.5380 H   0  0  0  0  0  0  0  0  0  0  0  0
    1.0561    1.5748    3.6100 H   0  0  0  0  0  0  0  0  0  0  0  0
   -1.7247   -2.2715    0.9954 H   0  0  0  0  0  0  0  0  0  0  0  0
   -2.0589   -1.1963   -0.3971 H   0  0  0  0  0  0  0  0  0  0  0  0
   -2.9296   -0.7814    2.5041 H   0  0  0  0  0  0  0  0  0  0  0  0
   -3.9282   -1.1400    1.0958 H   0  0  0  0  0  0  0  0  0  0  0  0
   -3.9895    1.2745    1.8275 H   0  0  0  0  0  0  0  0  0  0  0  0
   -1.9487    2.6935    1.4117 H   0  0  0  0  0  0  0  0  0  0  0  0
   -1.7145    1.4734    2.6594 H   0  0  0  0  0  0  0  0  0  0  0  0
   -0.7791    1.3650   -0.2592 H   0  0  0  0  0  0  0  0  0  0  0  0
    0.2379    1.6138    1.1753 H   0  0  0  0  0  0  0  0  0  0  0  0
    1.7266    0.9186   -0.1559 H   0  0  0  0  0  0  0  0  0  0  0  0
    3.1579   -1.7509   -3.0418 H   0  0  0  0  0  0  0  0  0  0  0  0
    1.3716   -3.3120   -2.4818 H   0  0  0  0  0  0  0  0  0  0  0  0
   -2.8695    0.8571   -1.0243 H   0  0  0  0  0  0  0  0  0  0  0  0
   -4.5560    0.6020   -0.4976 H   0  0  0  0  0  0  0  0  0  0  0  0
   -4.6923    3.0419    0.2016 H   0  0  0  0  0  0  0  0  0  0  0  0
   -3.0487    3.3120   -0.4672 H   0  0  0  0  0  0  0  0  0  0  0  0
   -4.0451    2.9304   -3.7575 H   0  0  0  0  0  0  0  0  0  0  0  0
  1  2  1  0      
  1  6  2  0      
  1 30  1  0      
  2  3  2  0      
  2  7  1  0      
  3  4  1  0      
  3 31  1  0      
  4  5  2  0      
  4 32  1  0      
  5  6  1  0      
  5  8  1  0      
  6 33  1  0      
  8  9  2  0      
  8 10  2  0      
 11  8  1  0      
 11 12  1  0      
 11 16  1  0      
 11 17  1  0      
 12 13  1  0      
 12 34  1  0      
 12 35  1  0      
 13 14  1  0      
 13 36  1  0      
 13 37  1  0      
 14 15  1  0      
 14 25  1  0      
 14 38  1  0      
 15 16  1  0      
 15 39  1  0      
 15 40  1  0      
 16 41  1  0      
 16 42  1  0      
 17 18  1  0      
 17 22  2  0      
 18 19  2  0      
 18 43  1  0      
 19 20  1  0      
 19 23  1  0      
 20 21  2  0      
 20 44  1  0      
 21 22  1  0      
 21 45  1  0      
 22 24  1  0      
 25 26  1  0      
 25 46  1  0      
 25 47  1  0      
 26 27  1  0      
 26 48  1  0      
 26 49  1  0      
 27 28  2  0      
 27 29  1  0      
 29 50  1  0      
M  END
