
  Chem3D Core 15.003181609393D

 45 48  0  0  0  0  0  0  0  0999 V2000
    4.6856    0.0963    2.0177 N   0  0  0  0  0  0  0  0  0  0  0  0
    5.5658   -0.1974    3.0048 N   0  0  0  0  0  0  0  0  0  0  0  0
    4.6806   -0.3411    4.0228 N   0  0  0  0  0  0  0  0  0  0  0  0
    3.4871   -0.1491    3.6890 N   0  0  0  0  0  0  0  0  0  0  0  0
    3.4973    0.1198    2.4515 C   0  0  0  0  0  0  0  0  0  0  0  0
    7.4416   -1.0770    1.7235 C   0  0  0  0  0  0  0  0  0  0  0  0
    6.3660   -1.3796    2.7524 C   0  0  0  0  0  0  0  0  0  0  0  0
    8.5694   -0.7080    1.9474 O   0  0  0  0  0  0  0  0  0  0  0  0
    6.9962   -1.2739    0.4671 O   0  0  0  0  0  0  0  0  0  0  0  0
    2.4508    0.6389    0.5090 O   0  0  0  0  0  0  0  0  0  0  0  0
    1.2051    0.8492    0.1297 N   0  0  0  0  0  0  0  0  0  0  0  0
    0.3645    0.7275    1.0736 C   0  0  0  0  0  0  0  0  0  0  0  0
    1.1380    0.4211    2.1322 C   0  0  0  0  0  0  0  0  0  0  0  0
    2.4102    0.3845    1.7096 C   0  0  0  0  0  0  0  0  0  0  0  0
   -0.8993    0.8658    1.0271 N   0  0  0  0  0  0  0  0  0  0  0  0
   -1.7589    0.6906    2.2217 C   0  0  0  0  0  0  0  0  0  0  0  0
   -2.8686   -0.3141    1.8779 C   0  0  0  0  0  0  0  0  0  0  0  0
   -3.6184    0.0825    0.6019 C   0  0  0  0  0  0  0  0  0  0  0  0
   -2.6442    0.2027   -0.5744 C   0  0  0  0  0  0  0  0  0  0  0  0
   -1.5261    1.2132   -0.2729 C   0  0  0  0  0  0  0  0  0  0  0  0
   -4.5987   -0.8906    0.3617 O   0  0  0  0  0  0  0  0  0  0  0  0
   -5.5469   -0.5620   -0.5763 C   0  0  0  0  0  0  0  0  0  0  0  0
   -6.7046    0.0610   -0.2653 C   0  0  0  0  0  0  0  0  0  0  0  0
   -7.6374    0.3159   -1.1988 C   0  0  0  0  0  0  0  0  0  0  0  0
   -7.4582   -0.0913   -2.4636 C   0  0  0  0  0  0  0  0  0  0  0  0
   -6.3512   -0.7736   -2.7877 C   0  0  0  0  0  0  0  0  0  0  0  0
   -5.4317   -1.0151   -1.8412 C   0  0  0  0  0  0  0  0  0  0  0  0
   -6.1760   -1.2161   -4.0228 F   0  0  0  0  0  0  0  0  0  0  0  0
   -7.0647    0.6467    1.5072 Br  0  0  0  0  0  0  0  0  0  0  0  0
    6.8755   -1.6978    3.6930 H   0  0  0  0  0  0  0  0  0  0  0  0
    5.7362   -2.2363    2.4157 H   0  0  0  0  0  0  0  0  0  0  0  0
    7.7119   -1.0509   -0.1502 H   0  0  0  0  0  0  0  0  0  0  0  0
    0.8305    0.2306    3.1667 H   0  0  0  0  0  0  0  0  0  0  0  0
   -1.2326    0.3403    3.1343 H   0  0  0  0  0  0  0  0  0  0  0  0
   -2.2129    1.6783    2.4723 H   0  0  0  0  0  0  0  0  0  0  0  0
   -2.4145   -1.3243    1.7377 H   0  0  0  0  0  0  0  0  0  0  0  0
   -3.5835   -0.3901    2.7323 H   0  0  0  0  0  0  0  0  0  0  0  0
   -4.1141    1.0674    0.7739 H   0  0  0  0  0  0  0  0  0  0  0  0
   -2.1893   -0.7953   -0.7817 H   0  0  0  0  0  0  0  0  0  0  0  0
   -3.1779    0.5275   -1.4985 H   0  0  0  0  0  0  0  0  0  0  0  0
   -0.8211    1.2403   -1.1339 H   0  0  0  0  0  0  0  0  0  0  0  0
   -1.9627    2.2363   -0.1845 H   0  0  0  0  0  0  0  0  0  0  0  0
   -8.5694    0.8494   -0.9459 H   0  0  0  0  0  0  0  0  0  0  0  0
   -8.2273    0.1100   -3.2275 H   0  0  0  0  0  0  0  0  0  0  0  0
   -4.5416   -1.6054   -2.1182 H   0  0  0  0  0  0  0  0  0  0  0  0
  2  1  1  0      
  1  5  2  0      
  2  3  1  0      
  2  7  1  0      
  4  3  2  0      
  5  4  1  0      
  5 14  1  0      
  6  7  1  0      
  6  8  2  0      
  6  9  1  0      
  7 30  1  0      
  7 31  1  0      
  9 32  1  0      
 10 11  1  0      
 14 10  1  0      
 11 12  2  0      
 12 13  1  0      
 12 15  1  0      
 14 13  2  0      
 13 33  1  0      
 15 16  1  0      
 15 20  1  0      
 16 17  1  0      
 16 34  1  0      
 16 35  1  0      
 17 18  1  0      
 17 36  1  0      
 17 37  1  0      
 18 19  1  0      
 18 21  1  0      
 18 38  1  0      
 19 20  1  0      
 19 39  1  0      
 19 40  1  0      
 20 41  1  0      
 20 42  1  0      
 21 22  1  0      
 22 23  1  0      
 22 27  2  0      
 23 24  2  0      
 23 29  1  0      
 24 25  1  0      
 24 43  1  0      
 25 26  2  0      
 25 44  1  0      
 26 27  1  0      
 26 28  1  0      
 27 45  1  0      
M  END
