
  Chem3D Core 15.010151510333D

 52 57  0  0  0  0  0  0  0  0999 V2000
    1.2964   -6.7305    2.7228 O   0  0  0  0  0  0  0  0  0  0  0  0
    1.6456   -5.5924    2.5340 C   0  0  0  0  0  0  0  0  0  0  0  0
    2.9369   -5.1705    2.6354 N   0  0  0  0  0  0  0  0  0  0  0  0
    2.9184   -3.8486    2.3526 N   0  0  0  0  0  0  0  0  0  0  0  0
    1.7085   -3.5551    2.1116 C   0  0  0  0  0  0  0  0  0  0  0  0
    1.2186   -2.3474    1.7832 C   0  0  0  0  0  0  0  0  0  0  0  0
    1.9504   -1.2305    1.6756 C   0  0  0  0  0  0  0  0  0  0  0  0
    1.3718   -0.0428    1.3912 C   0  0  0  0  0  0  0  0  0  0  0  0
    2.1619    1.0506    1.5440 C   0  0  0  0  0  0  0  0  0  0  0  0
    1.6736    2.1766    2.1090 C   0  0  0  0  0  0  0  0  0  0  0  0
    2.4331    3.2622    2.3242 C   0  0  0  0  0  0  0  0  0  0  0  0
    3.7305    3.2508    1.9911 C   0  0  0  0  0  0  0  0  0  0  0  0
    4.2524    2.1382    1.4576 C   0  0  0  0  0  0  0  0  0  0  0  0
    3.4803    1.0591    1.2522 C   0  0  0  0  0  0  0  0  0  0  0  0
    0.0371   -0.0445    1.1220 C   0  0  0  0  0  0  0  0  0  0  0  0
   -0.7080    0.9858    0.6283 C   0  0  0  0  0  0  0  0  0  0  0  0
   -2.0611    0.9615    0.6262 C   0  0  0  0  0  0  0  0  0  0  0  0
   -2.8133    1.9617    0.1397 C   0  0  0  0  0  0  0  0  0  0  0  0
   -2.2518    3.0535   -0.3989 C   0  0  0  0  0  0  0  0  0  0  0  0
   -3.0831    4.1726   -0.9654 C   0  0  0  0  0  0  0  0  0  0  0  0
   -3.3280    3.9598   -2.4005 N   0  0  0  0  0  0  0  0  0  0  0  0
   -2.5739    5.6115   -0.6848 C   0  0  0  0  0  0  0  0  0  0  0  0
   -4.0498    6.0412   -0.4938 C   0  0  0  0  0  0  0  0  0  0  0  0
   -4.3797    4.5555   -0.2054 C   0  0  0  0  0  0  0  0  0  0  0  0
   -0.9135    3.0764   -0.4715 C   0  0  0  0  0  0  0  0  0  0  0  0
   -0.1763    2.0692    0.0220 C   0  0  0  0  0  0  0  0  0  0  0  0
   -0.6200   -1.1249    1.2690 N   0  0  0  0  0  0  0  0  0  0  0  0
   -0.1016   -2.2346    1.5786 C   0  0  0  0  0  0  0  0  0  0  0  0
   -0.8695   -3.3336    1.6956 C   0  0  0  0  0  0  0  0  0  0  0  0
   -0.3078   -4.5082    2.0218 C   0  0  0  0  0  0  0  0  0  0  0  0
    0.9465   -4.5768    2.2174 N   0  0  0  0  0  0  0  0  0  0  0  0
    3.7134   -5.7599    2.8748 H   0  0  0  0  0  0  0  0  0  0  0  0
    3.0150   -1.3177    1.9429 H   0  0  0  0  0  0  0  0  0  0  0  0
    0.6318    2.2302    2.4691 H   0  0  0  0  0  0  0  0  0  0  0  0
    1.9974    4.1584    2.7974 H   0  0  0  0  0  0  0  0  0  0  0  0
    4.3624    4.1364    2.1696 H   0  0  0  0  0  0  0  0  0  0  0  0
    5.3214    2.1139    1.1858 H   0  0  0  0  0  0  0  0  0  0  0  0
    3.9764    0.1899    0.7890 H   0  0  0  0  0  0  0  0  0  0  0  0
   -2.6371    0.1262    1.0595 H   0  0  0  0  0  0  0  0  0  0  0  0
   -3.9125    1.8831    0.1827 H   0  0  0  0  0  0  0  0  0  0  0  0
   -3.6865    4.8200   -2.8491 H   0  0  0  0  0  0  0  0  0  0  0  0
   -2.4315    3.7552   -2.8748 H   0  0  0  0  0  0  0  0  0  0  0  0
   -2.0508    6.1005   -1.5348 H   0  0  0  0  0  0  0  0  0  0  0  0
   -2.0029    5.6891    0.2691 H   0  0  0  0  0  0  0  0  0  0  0  0
   -4.2258    6.7305    0.3607 H   0  0  0  0  0  0  0  0  0  0  0  0
   -4.5145    6.4064   -1.4382 H   0  0  0  0  0  0  0  0  0  0  0  0
   -5.3214    4.1879   -0.6672 H   0  0  0  0  0  0  0  0  0  0  0  0
   -4.3238    4.3349    0.8855 H   0  0  0  0  0  0  0  0  0  0  0  0
   -0.4123    3.9212   -0.9733 H   0  0  0  0  0  0  0  0  0  0  0  0
    0.9035    2.1569   -0.1716 H   0  0  0  0  0  0  0  0  0  0  0  0
   -1.9587   -3.2822    1.5284 H   0  0  0  0  0  0  0  0  0  0  0  0
   -0.9054   -5.4265    2.1289 H   0  0  0  0  0  0  0  0  0  0  0  0
  1  2  2  0      
  2  3  1  0      
  2 31  1  0      
  3  4  1  0      
  3 32  1  0      
  4  5  2  0      
  5  6  1  0      
  5 31  1  0      
  6  7  2  0      
  6 28  1  0      
  7  8  1  0      
  7 33  1  0      
  8  9  1  0      
  8 15  2  0      
  9 10  1  0      
  9 14  2  0      
 10 11  2  0      
 10 34  1  0      
 11 12  1  0      
 11 35  1  0      
 12 13  2  0      
 12 36  1  0      
 13 14  1  0      
 13 37  1  0      
 14 38  1  0      
 15 16  1  0      
 15 27  1  0      
 16 17  1  0      
 16 26  2  0      
 17 18  2  0      
 17 39  1  0      
 18 19  1  0      
 18 40  1  0      
 19 20  1  0      
 19 25  2  0      
 20 21  1  0      
 20 22  1  0      
 20 24  1  0      
 21 41  1  0      
 21 42  1  0      
 22 23  1  0      
 22 43  1  0      
 22 44  1  0      
 23 24  1  0      
 23 45  1  0      
 23 46  1  0      
 24 47  1  0      
 24 48  1  0      
 25 26  1  0      
 25 49  1  0      
 26 50  1  0      
 27 28  2  0      
 28 29  1  0      
 29 30  2  0      
 29 51  1  0      
 30 31  1  0      
 30 52  1  0      
M  END
