
  Chem3D Core 14.008171522133D

 53 56  0  0  0  0  0  0  0  0999 V2000
   -0.5722   -1.3578    0.0643 N   0  0  0  0  0  0  0  0  0  0  0  0
   -0.3866   -3.3494    0.9202 N   0  0  0  0  0  0  0  0  0  0  0  0
    3.9132    5.2995   -1.7165 N   0  0  0  0  0  0  0  0  0  0  0  0
    1.1789   -0.0061   -0.1896 N   0  0  0  0  0  0  0  0  0  0  0  0
    3.8343    6.4114   -1.1692 N   0  0  0  0  0  0  0  0  0  0  0  0
    4.7161    7.2421   -1.5001 N   0  0  0  0  0  0  0  0  0  0  0  0
   -2.4704   -2.6146    0.2581 C   0  0  0  0  0  0  0  0  0  0  0  0
   -1.1247   -2.4497    0.4161 C   0  0  0  0  0  0  0  0  0  0  0  0
   -3.1974   -3.7292    0.5640 C   0  0  0  0  0  0  0  0  0  0  0  0
    0.6662   -1.1103    0.1766 C   0  0  0  0  0  0  0  0  0  0  0  0
    1.4761   -2.0461    0.7020 C   0  0  0  0  0  0  0  0  0  0  0  0
    3.1098    4.3237   -1.5107 C   0  0  0  0  0  0  0  0  0  0  0  0
   -3.1671   -1.5652   -0.2454 C   0  0  0  0  0  0  0  0  0  0  0  0
    0.8553   -3.1767    1.0638 C   0  0  0  0  0  0  0  0  0  0  0  0
   -2.6243   -5.0491    1.0988 C   0  0  0  0  0  0  0  0  0  0  0  0
    1.3553    2.2538   -1.0343 C   0  0  0  0  0  0  0  0  0  0  0  0
   -4.5377   -3.6954    0.4055 C   0  0  0  0  0  0  0  0  0  0  0  0
    0.4086    1.1048   -0.7819 C   0  0  0  0  0  0  0  0  0  0  0  0
    3.2296    3.1292   -2.1261 C   0  0  0  0  0  0  0  0  0  0  0  0
    2.0786    4.4417   -0.6474 C   0  0  0  0  0  0  0  0  0  0  0  0
    2.3760    2.1190   -1.8956 C   0  0  0  0  0  0  0  0  0  0  0  0
    1.2217    3.4354   -0.4118 C   0  0  0  0  0  0  0  0  0  0  0  0
   -4.4956   -1.5572   -0.4196 C   0  0  0  0  0  0  0  0  0  0  0  0
   -5.1993   -2.6380   -0.0776 C   0  0  0  0  0  0  0  0  0  0  0  0
    4.9280    5.3707   -2.4835 C   0  0  0  0  0  0  0  0  0  0  0  0
    2.9639   -1.8673    0.8858 C   0  0  0  0  0  0  0  0  0  0  0  0
    5.4188    6.6040   -2.3311 C   0  0  0  0  0  0  0  0  0  0  0  0
   -2.4471   -4.9648    2.6256 C   0  0  0  0  0  0  0  0  0  0  0  0
   -3.4183   -6.3312    0.7605 C   0  0  0  0  0  0  0  0  0  0  0  0
    2.2117    0.1312   -0.0691 H   0  0  0  0  0  0  0  0  0  0  0  0
   -2.6963   -0.6127   -0.5418 H   0  0  0  0  0  0  0  0  0  0  0  0
    1.4148   -4.0141    1.5120 H   0  0  0  0  0  0  0  0  0  0  0  0
   -1.6567   -5.2620    0.5855 H   0  0  0  0  0  0  0  0  0  0  0  0
   -5.1671   -4.5568    0.6733 H   0  0  0  0  0  0  0  0  0  0  0  0
   -0.0438    0.7853   -1.7495 H   0  0  0  0  0  0  0  0  0  0  0  0
   -0.4161    1.4034   -0.0949 H   0  0  0  0  0  0  0  0  0  0  0  0
    4.0345    2.9220   -2.8488 H   0  0  0  0  0  0  0  0  0  0  0  0
    1.8940    5.3772   -0.0922 H   0  0  0  0  0  0  0  0  0  0  0  0
    2.5155    1.1597   -2.4226 H   0  0  0  0  0  0  0  0  0  0  0  0
    0.3981    3.5861    0.3061 H   0  0  0  0  0  0  0  0  0  0  0  0
   -5.0110   -0.6695   -0.8241 H   0  0  0  0  0  0  0  0  0  0  0  0
   -6.2956   -2.6545   -0.1947 H   0  0  0  0  0  0  0  0  0  0  0  0
    5.3128    4.5782   -3.1319 H   0  0  0  0  0  0  0  0  0  0  0  0
    3.4455   -2.7638    1.3363 H   0  0  0  0  0  0  0  0  0  0  0  0
    3.4604   -1.6866   -0.0948 H   0  0  0  0  0  0  0  0  0  0  0  0
    3.1743   -1.0074    1.5617 H   0  0  0  0  0  0  0  0  0  0  0  0
    6.2956    7.0310   -2.8341 H   0  0  0  0  0  0  0  0  0  0  0  0
   -1.9538   -5.8801    3.0250 H   0  0  0  0  0  0  0  0  0  0  0  0
   -1.8298   -4.0940    2.9381 H   0  0  0  0  0  0  0  0  0  0  0  0
   -3.4338   -4.8609    3.1319 H   0  0  0  0  0  0  0  0  0  0  0  0
   -2.8283   -7.2421    1.0161 H   0  0  0  0  0  0  0  0  0  0  0  0
   -3.6513   -6.3926   -0.3278 H   0  0  0  0  0  0  0  0  0  0  0  0
   -4.3657   -6.4248    1.3361 H   0  0  0  0  0  0  0  0  0  0  0  0
  1  8  2  0      
 10  1  1  0      
  8  2  1  0      
 14  2  2  0      
  3  5  1  0      
  3 12  1  0      
  3 25  1  0      
  4 10  1  0      
  4 18  1  0      
  4 30  1  0      
  5  6  2  0      
  6 27  1  0      
  7  8  1  0      
  7  9  1  0      
  7 13  2  0      
  9 15  1  0      
  9 17  2  0      
 11 10  2  0      
 14 11  1  0      
 11 26  1  0      
 12 19  1  0      
 12 20  2  0      
 23 13  1  0      
 13 31  1  0      
 14 32  1  0      
 15 28  1  0      
 15 29  1  0      
 15 33  1  0      
 16 18  1  0      
 21 16  1  0      
 16 22  2  0      
 17 24  1  0      
 17 34  1  0      
 18 35  1  0      
 18 36  1  0      
 19 21  2  0      
 19 37  1  0      
 22 20  1  0      
 20 38  1  0      
 21 39  1  0      
 22 40  1  0      
 24 23  2  0      
 23 41  1  0      
 24 42  1  0      
 27 25  2  0      
 25 43  1  0      
 26 44  1  0      
 26 45  1  0      
 26 46  1  0      
 27 47  1  0      
 28 48  1  0      
 28 49  1  0      
 28 50  1  0      
 29 51  1  0      
 29 52  1  0      
 29 53  1  0      
M  END
