
  Chem3D Core 15.002191617403D

 44 46  0  0  0  0  0  0  0  0999 V2000
   -2.3803    1.1138    0.8533 C   0  0  0  0  0  0  0  0  0  0  0  0
   -3.0990    0.1427    0.4918 N   0  0  0  0  0  0  0  0  0  0  0  0
   -3.5076    0.0484   -0.7029 C   0  0  0  0  0  0  0  0  0  0  0  0
   -3.1193    1.0343   -1.5559 C   0  0  0  0  0  0  0  0  0  0  0  0
   -2.3426    2.0397   -1.0875 C   0  0  0  0  0  0  0  0  0  0  0  0
   -1.9810    2.0623    0.1252 N   0  0  0  0  0  0  0  0  0  0  0  0
   -1.9668    2.9737   -1.8598 N   0  0  0  0  0  0  0  0  0  0  0  0
   -3.4755    1.0801   -3.2618 Cl  0  0  0  0  0  0  0  0  0  0  0  0
   -4.2892   -1.0317   -1.0285 C   0  0  0  0  0  0  0  0  0  0  0  0
   -4.8539   -1.1286   -2.0923 O   0  0  0  0  0  0  0  0  0  0  0  0
   -4.5226   -2.1039   -0.2051 N   0  0  0  0  0  0  0  0  0  0  0  0
   -3.9450   -2.4351    1.1101 C   0  0  0  0  0  0  0  0  0  0  0  0
   -4.6930   -1.7911    2.2896 C   0  0  0  0  0  0  0  0  0  0  0  0
   -2.4278   -2.4109    1.1388 C   0  0  0  0  0  0  0  0  0  0  0  0
   -1.8255   -2.0117    2.1765 N   0  0  0  0  0  0  0  0  0  0  0  0
   -0.5875   -2.1208    1.9548 C   0  0  0  0  0  0  0  0  0  0  0  0
   -0.3069   -2.6387    0.7483 C   0  0  0  0  0  0  0  0  0  0  0  0
   -1.5717   -2.8541    0.0296 S   0  0  0  0  0  0  0  0  0  0  0  0
    0.9437   -2.8071    0.2340 C   0  0  0  0  0  0  0  0  0  0  0  0
    1.9292   -1.8838    0.3945 N   0  0  0  0  0  0  0  0  0  0  0  0
    1.2208   -3.7545   -0.4666 O   0  0  0  0  0  0  0  0  0  0  0  0
    2.0145   -0.6102    0.8317 C   0  0  0  0  0  0  0  0  0  0  0  0
    1.0109    0.0689    1.1957 N   0  0  0  0  0  0  0  0  0  0  0  0
    1.1777    1.2602    1.5853 C   0  0  0  0  0  0  0  0  0  0  0  0
    2.3683    1.8799    1.6336 C   0  0  0  0  0  0  0  0  0  0  0  0
    3.4651    1.2011    1.2442 C   0  0  0  0  0  0  0  0  0  0  0  0
    3.2462   -0.0650    0.8405 C   0  0  0  0  0  0  0  0  0  0  0  0
    2.4381    3.5156    2.1897 Cl  0  0  0  0  0  0  0  0  0  0  0  0
    4.8637    1.7952    1.2513 C   0  0  0  0  0  0  0  0  0  0  0  0
    4.9189    2.8643    0.4719 F   0  0  0  0  0  0  0  0  0  0  0  0
    5.1999    2.1718    2.4756 F   0  0  0  0  0  0  0  0  0  0  0  0
    5.7908    0.9497    0.8300 F   0  0  0  0  0  0  0  0  0  0  0  0
   -2.0726    1.1295    1.9124 H   0  0  0  0  0  0  0  0  0  0  0  0
   -1.3660    3.7545   -1.4981 H   0  0  0  0  0  0  0  0  0  0  0  0
   -2.2563    2.9737   -2.8686 H   0  0  0  0  0  0  0  0  0  0  0  0
   -5.1857   -2.7679   -0.6051 H   0  0  0  0  0  0  0  0  0  0  0  0
   -4.1753   -3.5295    1.2218 H   0  0  0  0  0  0  0  0  0  0  0  0
   -4.3765   -2.2342    3.2618 H   0  0  0  0  0  0  0  0  0  0  0  0
   -5.7908   -1.9578    2.1945 H   0  0  0  0  0  0  0  0  0  0  0  0
   -4.5417   -0.6937    2.3662 H   0  0  0  0  0  0  0  0  0  0  0  0
    0.1427   -1.8332    2.7248 H   0  0  0  0  0  0  0  0  0  0  0  0
    2.8300   -2.2046    0.0699 H   0  0  0  0  0  0  0  0  0  0  0  0
    0.2627    1.7896    1.8974 H   0  0  0  0  0  0  0  0  0  0  0  0
    4.0973   -0.6817    0.5078 H   0  0  0  0  0  0  0  0  0  0  0  0
  2  1  2  0      
  1  6  1  0      
  1 33  1  0      
  3  2  1  0      
  4  3  2  0      
  3  9  1  0      
  5  4  1  0      
  4  8  1  0      
  5  6  2  0      
  5  7  1  0      
  7 34  1  0      
  7 35  1  0      
  9 10  2  0      
  9 11  1  0      
 11 12  1  0      
 11 36  1  0      
 12 13  1  0      
 12 14  1  0      
 12 37  1  0      
 13 38  1  0      
 13 39  1  0      
 13 40  1  0      
 14 15  2  0      
 18 14  1  0      
 16 15  1  0      
 16 17  2  0      
 16 41  1  0      
 17 18  1  0      
 17 19  1  0      
 19 20  1  0      
 19 21  2  0      
 20 22  1  0      
 20 42  1  0      
 22 23  2  0      
 27 22  1  0      
 23 24  1  0      
 25 24  2  0      
 24 43  1  0      
 25 26  1  0      
 25 28  1  0      
 26 27  2  0      
 26 29  1  0      
 27 44  1  0      
 29 30  1  0      
 29 31  1  0      
 29 32  1  0      
M  END
