
  Chem3D Core 15.003291611143D

 77 81  0  0  0  0  0  0  0  0999 V2000
   -2.8543   -5.5312    0.6708 Cl  0  0  0  0  0  0  0  0  0  0  0  0
    2.9972    1.4556   -3.2504 S   0  0  0  0  0  0  0  0  0  0  0  0
    2.5685   -2.3223   -4.2973 O   0  0  0  0  0  0  0  0  0  0  0  0
    1.6259   -1.3107   -2.5062 O   0  0  0  0  0  0  0  0  0  0  0  0
    0.8175   -0.8640    0.0957 O   0  0  0  0  0  0  0  0  0  0  0  0
   -3.3549   -1.0028   -1.1512 N   0  0  0  0  0  0  0  0  0  0  0  0
    4.8939   -0.5057   -3.0802 C   0  0  0  0  0  0  0  0  0  0  0  0
    5.4279   -0.7288   -4.4768 C   0  0  0  0  0  0  0  0  0  0  0  0
    6.3495   -0.8678   -3.2933 C   0  0  0  0  0  0  0  0  0  0  0  0
    4.6247    0.9361   -2.6515 C   0  0  0  0  0  0  0  0  0  0  0  0
    3.9918   -1.5892   -2.4824 C   0  0  0  0  0  0  0  0  0  0  0  0
    2.5414    2.8642   -2.1804 C   0  0  0  0  0  0  0  0  0  0  0  0
    1.0466    3.1043   -2.3656 C   0  0  0  0  0  0  0  0  0  0  0  0
    2.6738   -1.7779   -3.2201 C   0  0  0  0  0  0  0  0  0  0  0  0
    1.8003    0.1813    2.1060 C   0  0  0  0  0  0  0  0  0  0  0  0
    2.5287    1.1302    1.4585 C   0  0  0  0  0  0  0  0  0  0  0  0
   -3.9539   -2.0411   -0.7421 C   0  0  0  0  0  0  0  0  0  0  0  0
   -5.2970   -2.1208   -0.7113 C   0  0  0  0  0  0  0  0  0  0  0  0
    2.8999    2.7072   -0.6786 C   0  0  0  0  0  0  0  0  0  0  0  0
    0.6362   -0.6181    1.4764 C   0  0  0  0  0  0  0  0  0  0  0  0
    0.1566    2.1046   -2.2252 C   0  0  0  0  0  0  0  0  0  0  0  0
   -1.1794    2.2706   -2.2757 C   0  0  0  0  0  0  0  0  0  0  0  0
   -3.9783    0.0293   -1.5475 C   0  0  0  0  0  0  0  0  0  0  0  0
    2.2598    1.4887    0.0109 C   0  0  0  0  0  0  0  0  0  0  0  0
    0.5580    4.3266   -2.6358 C   0  0  0  0  0  0  0  0  0  0  0  0
   -3.2171   -3.0856   -0.3209 C   0  0  0  0  0  0  0  0  0  0  0  0
   -5.9959   -1.0536   -1.1293 C   0  0  0  0  0  0  0  0  0  0  0  0
   -5.3252    0.0304   -1.5461 C   0  0  0  0  0  0  0  0  0  0  0  0
    2.0909   -0.0342    3.4059 C   0  0  0  0  0  0  0  0  0  0  0  0
   -5.8914   -3.2422   -0.2675 C   0  0  0  0  0  0  0  0  0  0  0  0
    3.5101    1.7778    2.1155 C   0  0  0  0  0  0  0  0  0  0  0  0
   -3.8133   -4.2022    0.1260 C   0  0  0  0  0  0  0  0  0  0  0  0
   -1.9532    1.2018   -1.9898 C   0  0  0  0  0  0  0  0  0  0  0  0
   -3.2965    1.1241   -1.9506 C   0  0  0  0  0  0  0  0  0  0  0  0
   -1.6266    3.5067   -2.5626 C   0  0  0  0  0  0  0  0  0  0  0  0
   -0.7649    4.5197   -2.7497 C   0  0  0  0  0  0  0  0  0  0  0  0
   -5.1528   -4.2819    0.1515 C   0  0  0  0  0  0  0  0  0  0  0  0
    3.0697    0.6127    4.0537 C   0  0  0  0  0  0  0  0  0  0  0  0
    3.7935    1.5274    3.4001 C   0  0  0  0  0  0  0  0  0  0  0  0
   -0.6724    0.1642    1.6370 C   0  0  0  0  0  0  0  0  0  0  0  0
    0.4466   -2.0228    2.0725 C   0  0  0  0  0  0  0  0  0  0  0  0
    1.9020   -0.7947   -1.7329 H   0  0  0  0  0  0  0  0  0  0  0  0
    0.0792   -1.3710   -0.2500 H   0  0  0  0  0  0  0  0  0  0  0  0
    5.1513   -1.6423   -4.9989 H   0  0  0  0  0  0  0  0  0  0  0  0
    5.5501    0.1430   -5.1170 H   0  0  0  0  0  0  0  0  0  0  0  0
    7.0985   -0.0926   -3.1431 H   0  0  0  0  0  0  0  0  0  0  0  0
    6.6806   -1.8694   -3.0265 H   0  0  0  0  0  0  0  0  0  0  0  0
    5.3983    1.6403   -3.0339 H   0  0  0  0  0  0  0  0  0  0  0  0
    4.7165    0.9277   -1.5443 H   0  0  0  0  0  0  0  0  0  0  0  0
    4.5006   -2.5807   -2.5238 H   0  0  0  0  0  0  0  0  0  0  0  0
    3.8252   -1.3868   -1.4004 H   0  0  0  0  0  0  0  0  0  0  0  0
    3.1070    3.7503   -2.5627 H   0  0  0  0  0  0  0  0  0  0  0  0
    4.0082    2.6875   -0.5777 H   0  0  0  0  0  0  0  0  0  0  0  0
    2.5692    3.6304   -0.1429 H   0  0  0  0  0  0  0  0  0  0  0  0
    0.5518    1.0985   -2.0187 H   0  0  0  0  0  0  0  0  0  0  0  0
    2.5510    0.5956   -0.5847 H   0  0  0  0  0  0  0  0  0  0  0  0
    1.1633    1.6698   -0.0158 H   0  0  0  0  0  0  0  0  0  0  0  0
    1.2405    5.1838   -2.7556 H   0  0  0  0  0  0  0  0  0  0  0  0
   -2.1150   -3.0216   -0.3398 H   0  0  0  0  0  0  0  0  0  0  0  0
   -7.0985   -1.0501   -1.1285 H   0  0  0  0  0  0  0  0  0  0  0  0
   -5.9011    0.9098   -1.8811 H   0  0  0  0  0  0  0  0  0  0  0  0
    1.5185   -0.7589    4.0035 H   0  0  0  0  0  0  0  0  0  0  0  0
   -6.9913   -3.3223   -0.2366 H   0  0  0  0  0  0  0  0  0  0  0  0
    4.1157    2.5481    1.6147 H   0  0  0  0  0  0  0  0  0  0  0  0
   -1.4087    0.2810   -1.7145 H   0  0  0  0  0  0  0  0  0  0  0  0
   -3.8853    2.0082   -2.2432 H   0  0  0  0  0  0  0  0  0  0  0  0
   -2.7009    3.7390   -2.6272 H   0  0  0  0  0  0  0  0  0  0  0  0
   -1.1488    5.5312   -2.9668 H   0  0  0  0  0  0  0  0  0  0  0  0
   -5.6575   -5.1923    0.5164 H   0  0  0  0  0  0  0  0  0  0  0  0
    3.2740    0.4027    5.1170 H   0  0  0  0  0  0  0  0  0  0  0  0
    4.5998    2.0742    3.9169 H   0  0  0  0  0  0  0  0  0  0  0  0
   -0.9124    0.3268    2.7122 H   0  0  0  0  0  0  0  0  0  0  0  0
   -1.5286   -0.3823    1.1795 H   0  0  0  0  0  0  0  0  0  0  0  0
   -0.6308    1.1644    1.1529 H   0  0  0  0  0  0  0  0  0  0  0  0
   -0.2881   -2.6147    1.4795 H   0  0  0  0  0  0  0  0  0  0  0  0
    1.4035   -2.5935    2.0664 H   0  0  0  0  0  0  0  0  0  0  0  0
    0.0410   -2.0127    3.1078 H   0  0  0  0  0  0  0  0  0  0  0  0
  1 32  1  0      
  2 10  1  0      
 12  2  1  0      
  3 14  2  0      
  4 14  1  0      
  4 42  1  0      
  5 20  1  0      
  5 43  1  0      
 17  6  1  0      
 23  6  2  0      
  7  8  1  0      
  7  9  1  0      
  7 10  1  0      
  7 11  1  0      
  8  9  1  0      
  8 44  1  0      
  8 45  1  0      
  9 46  1  0      
  9 47  1  0      
 10 48  1  0      
 10 49  1  0      
 11 14  1  0      
 11 50  1  0      
 11 51  1  0      
 12 13  1  0      
 12 19  1  0      
 12 52  1  0      
 13 21  1  0      
 13 25  2  0      
 15 16  1  0      
 15 20  1  0      
 15 29  2  0      
 16 24  1  0      
 16 31  2  0      
 18 17  1  0      
 26 17  2  0      
 27 18  1  0      
 18 30  2  0      
 19 24  1  0      
 19 53  1  0      
 19 54  1  0      
 20 40  1  0      
 20 41  1  0      
 21 22  2  0      
 21 55  1  0      
 22 33  1  0      
 22 35  1  0      
 23 28  1  0      
 23 34  1  0      
 24 56  1  0      
 24 57  1  0      
 36 25  1  0      
 25 58  1  0      
 32 26  1  0      
 26 59  1  0      
 28 27  2  0      
 27 60  1  0      
 28 61  1  0      
 38 29  1  0      
 29 62  1  0      
 30 37  1  0      
 30 63  1  0      
 31 39  1  0      
 31 64  1  0      
 37 32  2  0      
 33 34  2  0      
 33 65  1  0      
 34 66  1  0      
 35 36  2  0      
 35 67  1  0      
 36 68  1  0      
 37 69  1  0      
 39 38  2  0      
 38 70  1  0      
 39 71  1  0      
 40 72  1  0      
 40 73  1  0      
 40 74  1  0      
 41 75  1  0      
 41 76  1  0      
 41 77  1  0      
M  END
