
  Chem3D Core 15.003291611183D

 33 34  0  0  0  0  0  0  0  0999 V2000
   -4.4482    0.1510   -3.9698 C   0  0  0  0  0  0  0  0  0  0  0  0
   -4.4775   -0.4657   -2.7035 O   0  0  0  0  0  0  0  0  0  0  0  0
   -3.3648   -0.3867   -1.8995 C   0  0  0  0  0  0  0  0  0  0  0  0
   -3.4017   -0.9796   -0.6911 C   0  0  0  0  0  0  0  0  0  0  0  0
   -2.3636   -0.9528    0.1570 C   0  0  0  0  0  0  0  0  0  0  0  0
   -1.2266   -0.3197   -0.1774 C   0  0  0  0  0  0  0  0  0  0  0  0
   -1.1578    0.2829   -1.3786 C   0  0  0  0  0  0  0  0  0  0  0  0
   -2.2136    0.2421   -2.2129 C   0  0  0  0  0  0  0  0  0  0  0  0
   -0.0216    0.9174   -1.7168 C   0  0  0  0  0  0  0  0  0  0  0  0
    1.0211    0.9485   -0.8738 C   0  0  0  0  0  0  0  0  0  0  0  0
    0.9684    0.3512    0.3303 C   0  0  0  0  0  0  0  0  0  0  0  0
   -0.1729   -0.2808    0.6588 C   0  0  0  0  0  0  0  0  0  0  0  0
    2.1856    0.4248    1.2364 C   0  0  0  0  0  0  0  0  0  0  0  0
    2.0882   -0.2684    2.6029 C   0  0  0  0  0  0  0  0  0  0  0  0
    3.3048   -0.2014    3.5222 C   0  0  0  0  0  0  0  0  0  0  0  0
    3.2542   -0.7410    4.6063 O   0  0  0  0  0  0  0  0  0  0  0  0
    4.5815    0.5206    3.1244 C   0  0  0  0  0  0  0  0  0  0  0  0
   -5.4333   -0.0265   -4.4568 H   0  0  0  0  0  0  0  0  0  0  0  0
   -4.3079    1.2497   -3.8624 H   0  0  0  0  0  0  0  0  0  0  0  0
   -3.6594   -0.3086   -4.6063 H   0  0  0  0  0  0  0  0  0  0  0  0
   -4.3217   -1.5081   -0.3865 H   0  0  0  0  0  0  0  0  0  0  0  0
   -2.4644   -1.4605    1.1316 H   0  0  0  0  0  0  0  0  0  0  0  0
   -2.1184    0.7472   -3.1870 H   0  0  0  0  0  0  0  0  0  0  0  0
    0.0761    1.4242   -2.6923 H   0  0  0  0  0  0  0  0  0  0  0  0
    1.9401    1.4770   -1.1792 H   0  0  0  0  0  0  0  0  0  0  0  0
   -0.2555   -0.7818    1.6354 H   0  0  0  0  0  0  0  0  0  0  0  0
    3.0377   -0.0244    0.6711 H   0  0  0  0  0  0  0  0  0  0  0  0
    2.4003    1.5081    1.4031 H   0  0  0  0  0  0  0  0  0  0  0  0
    1.2407    0.1765    3.1780 H   0  0  0  0  0  0  0  0  0  0  0  0
    1.8772   -1.3538    2.4471 H   0  0  0  0  0  0  0  0  0  0  0  0
    4.5456    0.9841    2.1177 H   0  0  0  0  0  0  0  0  0  0  0  0
    4.7962    1.3297    3.8589 H   0  0  0  0  0  0  0  0  0  0  0  0
    5.4333   -0.1968    3.1329 H   0  0  0  0  0  0  0  0  0  0  0  0
  1  2  1  0      
  1 18  1  0      
  1 19  1  0      
  1 20  1  0      
  2  3  1  0      
  3  4  1  0      
  3  8  2  0      
  4  5  2  0      
  4 21  1  0      
  5  6  1  0      
  5 22  1  0      
  6  7  1  0      
  6 12  2  0      
  7  8  1  0      
  9  7  2  0      
  8 23  1  0      
 10  9  1  0      
  9 24  1  0      
 11 10  2  0      
 10 25  1  0      
 12 11  1  0      
 11 13  1  0      
 12 26  1  0      
 13 14  1  0      
 13 27  1  0      
 13 28  1  0      
 14 15  1  0      
 14 29  1  0      
 14 30  1  0      
 15 16  2  0      
 15 17  1  0      
 17 31  1  0      
 17 32  1  0      
 17 33  1  0      
M  END
