
  Chem3D Core 15.003241614323D

 26 28  0  0  0  0  0  0  0  0999 V2000
    1.2357   -1.4567    0.2220 O   0  0  0  0  0  0  0  0  0  0  0  0
   -0.4989    2.5129    0.0526 O   0  0  0  0  0  0  0  0  0  0  0  0
   -1.2170   -2.6658    0.3624 O   0  0  0  0  0  0  0  0  0  0  0  0
    3.8897   -2.0076    0.0977 O   0  0  0  0  0  0  0  0  0  0  0  0
    0.2835    0.4313    0.1393 C   0  0  0  0  0  0  0  0  0  0  0  0
    0.1387   -0.8919    0.2205 C   0  0  0  0  0  0  0  0  0  0  0  0
   -1.9749    0.7616    0.2168 C   0  0  0  0  0  0  0  0  0  0  0  0
   -2.1486   -0.5804    0.2986 C   0  0  0  0  0  0  0  0  0  0  0  0
   -0.7334    1.3229    0.1311 C   0  0  0  0  0  0  0  0  0  0  0  0
   -1.0969   -1.4559    0.3008 C   0  0  0  0  0  0  0  0  0  0  0  0
    1.6016    0.6454    0.0733 C   0  0  0  0  0  0  0  0  0  0  0  0
    2.1186   -0.5952    0.1218 C   0  0  0  0  0  0  0  0  0  0  0  0
   -3.0553    1.5683    0.2186 C   0  0  0  0  0  0  0  0  0  0  0  0
   -3.4049   -1.0656    0.3785 C   0  0  0  0  0  0  0  0  0  0  0  0
   -4.2975    1.0704    0.2996 C   0  0  0  0  0  0  0  0  0  0  0  0
   -4.4726   -0.2543    0.3798 C   0  0  0  0  0  0  0  0  0  0  0  0
    3.4546   -0.8737    0.0876 C   0  0  0  0  0  0  0  0  0  0  0  0
    4.4391    0.2875    0.0271 C   0  0  0  0  0  0  0  0  0  0  0  0
    2.1141    1.6108   -0.0049 H   0  0  0  0  0  0  0  0  0  0  0  0
   -2.9667    2.6658    0.1539 H   0  0  0  0  0  0  0  0  0  0  0  0
   -3.6141   -2.1464    0.4467 H   0  0  0  0  0  0  0  0  0  0  0  0
   -5.1709    1.7440    0.3000 H   0  0  0  0  0  0  0  0  0  0  0  0
   -5.4914   -0.6720    0.4463 H   0  0  0  0  0  0  0  0  0  0  0  0
    5.4914   -0.0770    0.0343 H   0  0  0  0  0  0  0  0  0  0  0  0
    4.3029    0.8726   -0.9106 H   0  0  0  0  0  0  0  0  0  0  0  0
    4.3210    0.9549    0.9106 H   0  0  0  0  0  0  0  0  0  0  0  0
  6  1  1  0      
 12  1  1  0      
  2  9  2  0      
  3 10  2  0      
  4 17  2  0      
  5  6  2  0      
  5  9  1  0      
 11  5  1  0      
 10  6  1  0      
  7  8  2  0      
  9  7  1  0      
  7 13  1  0      
  8 10  1  0      
 14  8  1  0      
 12 11  2  0      
 11 19  1  0      
 12 17  1  0      
 13 15  2  0      
 13 20  1  0      
 16 14  2  0      
 14 21  1  0      
 15 16  1  0      
 15 22  1  0      
 16 23  1  0      
 17 18  1  0      
 18 24  1  0      
 18 25  1  0      
 18 26  1  0      
M  END
