
  Chem3D Core 15.011261511283D

120126  0  0  0  0  0  0  0  0999 V2000
   -3.8421    0.0288    3.9952 Cl  0  0  0  0  0  0  0  0  0  0  0  0
   -1.0689    2.0146    0.5374 S   0  0  0  0  0  0  0  0  0  0  0  0
    0.1078    4.7221   -3.9695 S   0  0  0  0  0  0  0  0  0  0  0  0
    1.7137   -3.5241   -2.4336 S   0  0  0  0  0  0  0  0  0  0  0  0
   -3.5090    2.4891    1.8002 F   0  0  0  0  0  0  0  0  0  0  0  0
   -3.3856    3.1535   -0.2466 F   0  0  0  0  0  0  0  0  0  0  0  0
   -3.5989    1.0718    0.1733 F   0  0  0  0  0  0  0  0  0  0  0  0
   -0.8951    3.3224    1.1670 O   0  0  0  0  0  0  0  0  0  0  0  0
   -1.1244    0.7992    1.3449 O   0  0  0  0  0  0  0  0  0  0  0  0
   -0.8460    5.7929   -3.6671 O   0  0  0  0  0  0  0  0  0  0  0  0
    0.8661    4.6869   -5.2262 O   0  0  0  0  0  0  0  0  0  0  0  0
    1.6831    7.1944   -1.7895 O   0  0  0  0  0  0  0  0  0  0  0  0
   -5.4375   -4.6936   -1.3103 O   0  0  0  0  0  0  0  0  0  0  0  0
   -0.4858   -0.3247   -1.2226 N   0  0  0  0  0  0  0  0  0  0  0  0
    1.3503    5.7698   -3.4356 N   0  0  0  0  0  0  0  0  0  0  0  0
    2.6652    1.8855    1.2295 N   0  0  0  0  0  0  0  0  0  0  0  0
    2.6050   -0.3855    2.9762 N   0  0  0  0  0  0  0  0  0  0  0  0
   -3.4548   -3.0412   -0.0475 N   0  0  0  0  0  0  0  0  0  0  0  0
   -0.6540    1.9281   -1.2044 C   0  0  0  0  0  0  0  0  0  0  0  0
   -3.0390    2.1944    0.5980 C   0  0  0  0  0  0  0  0  0  0  0  0
   -0.3730    0.7761   -1.8511 C   0  0  0  0  0  0  0  0  0  0  0  0
   -0.1553    3.1574   -3.1480 C   0  0  0  0  0  0  0  0  0  0  0  0
   -0.5609    3.0968   -1.8689 C   0  0  0  0  0  0  0  0  0  0  0  0
    0.0230    0.8396   -3.1360 C   0  0  0  0  0  0  0  0  0  0  0  0
    0.1371    2.0108   -3.7787 C   0  0  0  0  0  0  0  0  0  0  0  0
   -0.2395   -1.7048   -1.7189 C   0  0  0  0  0  0  0  0  0  0  0  0
    1.7352    6.0380   -2.1413 C   0  0  0  0  0  0  0  0  0  0  0  0
    2.0216    5.0026   -1.3031 C   0  0  0  0  0  0  0  0  0  0  0  0
    2.3366   -2.8039    3.4205 C   0  0  0  0  0  0  0  0  0  0  0  0
    1.0500   -3.0895    3.0819 C   0  0  0  0  0  0  0  0  0  0  0  0
   -1.1204   -2.6501   -0.8781 C   0  0  0  0  0  0  0  0  0  0  0  0
    1.2612   -2.0090   -1.5399 C   0  0  0  0  0  0  0  0  0  0  0  0
    2.4968    2.8787    0.4326 C   0  0  0  0  0  0  0  0  0  0  0  0
    3.0655   -5.2758    3.1291 C   0  0  0  0  0  0  0  0  0  0  0  0
    1.9558    5.1552    0.0295 C   0  0  0  0  0  0  0  0  0  0  0  0
    2.3848    3.7918   -1.7547 C   0  0  0  0  0  0  0  0  0  0  0  0
   -0.0633   -2.3296    3.3087 C   0  0  0  0  0  0  0  0  0  0  0  0
    3.4766   -3.8100    3.3121 C   0  0  0  0  0  0  0  0  0  0  0  0
    2.9193   -1.4766    3.8979 C   0  0  0  0  0  0  0  0  0  0  0  0
    2.1808    4.1221    0.8576 C   0  0  0  0  0  0  0  0  0  0  0  0
    2.5992    2.7697   -0.9104 C   0  0  0  0  0  0  0  0  0  0  0  0
    0.8320   -4.4232    2.3547 C   0  0  0  0  0  0  0  0  0  0  0  0
    2.0653   -5.2462    1.9731 C   0  0  0  0  0  0  0  0  0  0  0  0
    2.4848    2.0771    2.6918 C   0  0  0  0  0  0  0  0  0  0  0  0
    2.9123    0.5277    0.6802 C   0  0  0  0  0  0  0  0  0  0  0  0
   -2.6274   -2.3840   -1.0542 C   0  0  0  0  0  0  0  0  0  0  0  0
    3.3029   -0.5437    1.7101 C   0  0  0  0  0  0  0  0  0  0  0  0
    2.9627    0.8994    3.5548 C   0  0  0  0  0  0  0  0  0  0  0  0
   -1.2843   -2.7178    2.8663 C   0  0  0  0  0  0  0  0  0  0  0  0
   -0.1121   -1.1838    4.0221 C   0  0  0  0  0  0  0  0  0  0  0  0
    4.2902   -6.1330    2.7509 C   0  0  0  0  0  0  0  0  0  0  0  0
    2.4547   -5.8510    4.4225 C   0  0  0  0  0  0  0  0  0  0  0  0
    3.3302   -3.8763   -1.6670 C   0  0  0  0  0  0  0  0  0  0  0  0
   -2.4185   -2.0246    3.0582 C   0  0  0  0  0  0  0  0  0  0  0  0
   -1.2239   -0.4604    4.2337 C   0  0  0  0  0  0  0  0  0  0  0  0
   -2.3954   -0.8729    3.7372 C   0  0  0  0  0  0  0  0  0  0  0  0
   -4.8556   -2.6560   -0.1578 C   0  0  0  0  0  0  0  0  0  0  0  0
   -3.3853   -4.4946   -0.0673 C   0  0  0  0  0  0  0  0  0  0  0  0
    4.1627   -2.9128   -1.2372 C   0  0  0  0  0  0  0  0  0  0  0  0
    3.6792   -5.1655   -1.5171 C   0  0  0  0  0  0  0  0  0  0  0  0
   -5.5536   -3.2943   -1.3584 C   0  0  0  0  0  0  0  0  0  0  0  0
   -4.0931   -5.1008   -1.2774 C   0  0  0  0  0  0  0  0  0  0  0  0
    5.3328   -3.2355   -0.6640 C   0  0  0  0  0  0  0  0  0  0  0  0
    4.8528   -5.4883   -0.9517 C   0  0  0  0  0  0  0  0  0  0  0  0
    5.6807   -4.5234   -0.5232 C   0  0  0  0  0  0  0  0  0  0  0  0
   -0.7966   -0.2706   -0.2236 H   0  0  0  0  0  0  0  0  0  0  0  0
    1.4285    6.5848   -4.0202 H   0  0  0  0  0  0  0  0  0  0  0  0
   -0.7885    4.0445   -1.3526 H   0  0  0  0  0  0  0  0  0  0  0  0
    0.2876   -0.0624   -3.7096 H   0  0  0  0  0  0  0  0  0  0  0  0
    0.4916    2.0159   -4.8230 H   0  0  0  0  0  0  0  0  0  0  0  0
   -0.5621   -1.7854   -2.7822 H   0  0  0  0  0  0  0  0  0  0  0  0
   -0.8887   -3.7022   -1.1619 H   0  0  0  0  0  0  0  0  0  0  0  0
   -0.8505   -2.5210    0.1950 H   0  0  0  0  0  0  0  0  0  0  0  0
    1.4804   -2.0985   -0.4509 H   0  0  0  0  0  0  0  0  0  0  0  0
    1.8519   -1.1562   -1.9484 H   0  0  0  0  0  0  0  0  0  0  0  0
    1.6684    6.1215    0.4785 H   0  0  0  0  0  0  0  0  0  0  0  0
    2.5124    3.6004   -2.8333 H   0  0  0  0  0  0  0  0  0  0  0  0
    4.1287   -3.4892    2.4653 H   0  0  0  0  0  0  0  0  0  0  0  0
    4.0968   -3.7724    4.2391 H   0  0  0  0  0  0  0  0  0  0  0  0
    2.6034   -1.3035    4.9496 H   0  0  0  0  0  0  0  0  0  0  0  0
    4.0286   -1.5317    3.9969 H   0  0  0  0  0  0  0  0  0  0  0  0
    2.0451    4.3674    1.9222 H   0  0  0  0  0  0  0  0  0  0  0  0
    2.8489    1.8224   -1.4128 H   0  0  0  0  0  0  0  0  0  0  0  0
    0.1751   -5.0706    2.9845 H   0  0  0  0  0  0  0  0  0  0  0  0
    0.3236   -4.2386    1.3768 H   0  0  0  0  0  0  0  0  0  0  0  0
    1.7677   -6.2808    1.6811 H   0  0  0  0  0  0  0  0  0  0  0  0
    2.5542   -4.7914    1.0786 H   0  0  0  0  0  0  0  0  0  0  0  0
    3.0564    2.9605    3.0648 H   0  0  0  0  0  0  0  0  0  0  0  0
    1.3945    2.2243    2.8899 H   0  0  0  0  0  0  0  0  0  0  0  0
    3.7373    0.5282   -0.0713 H   0  0  0  0  0  0  0  0  0  0  0  0
    1.9638    0.1962    0.1931 H   0  0  0  0  0  0  0  0  0  0  0  0
   -2.7859   -1.2828   -0.9677 H   0  0  0  0  0  0  0  0  0  0  0  0
   -2.9209   -2.6598   -2.0914 H   0  0  0  0  0  0  0  0  0  0  0  0
    3.0976   -1.5468    1.2671 H   0  0  0  0  0  0  0  0  0  0  0  0
    4.4069   -0.5013    1.8756 H   0  0  0  0  0  0  0  0  0  0  0  0
    4.0699    0.9618    3.6893 H   0  0  0  0  0  0  0  0  0  0  0  0
    2.5187    1.0136    4.5734 H   0  0  0  0  0  0  0  0  0  0  0  0
   -1.4529   -3.6502    2.3075 H   0  0  0  0  0  0  0  0  0  0  0  0
    0.7580   -0.7568    4.5221 H   0  0  0  0  0  0  0  0  0  0  0  0
    4.7781   -5.7662    1.8220 H   0  0  0  0  0  0  0  0  0  0  0  0
    5.0604   -6.1163    3.5547 H   0  0  0  0  0  0  0  0  0  0  0  0
    4.0015   -7.1944    2.5783 H   0  0  0  0  0  0  0  0  0  0  0  0
    3.2207   -5.9345    5.2262 H   0  0  0  0  0  0  0  0  0  0  0  0
    1.6390   -5.2167    4.8327 H   0  0  0  0  0  0  0  0  0  0  0  0
    2.0390   -6.8691    4.2477 H   0  0  0  0  0  0  0  0  0  0  0  0
   -3.3737   -2.4096    2.6630 H   0  0  0  0  0  0  0  0  0  0  0  0
   -1.1711    0.4683    4.8279 H   0  0  0  0  0  0  0  0  0  0  0  0
   -5.3929   -2.9671    0.7713 H   0  0  0  0  0  0  0  0  0  0  0  0
   -4.9598   -1.5461   -0.1962 H   0  0  0  0  0  0  0  0  0  0  0  0
   -2.3349   -4.8563   -0.0061 H   0  0  0  0  0  0  0  0  0  0  0  0
   -3.8690   -4.8913    0.8589 H   0  0  0  0  0  0  0  0  0  0  0  0
    3.9161   -1.8456   -1.3442 H   0  0  0  0  0  0  0  0  0  0  0  0
    3.0087   -5.9744   -1.8528 H   0  0  0  0  0  0  0  0  0  0  0  0
   -6.6421   -3.0522   -1.3408 H   0  0  0  0  0  0  0  0  0  0  0  0
   -5.1564   -2.9228   -2.3291 H   0  0  0  0  0  0  0  0  0  0  0  0
   -4.0869   -6.2137   -1.2069 H   0  0  0  0  0  0  0  0  0  0  0  0
   -3.5982   -4.8332   -2.2373 H   0  0  0  0  0  0  0  0  0  0  0  0
    6.0108   -2.4409   -0.3096 H   0  0  0  0  0  0  0  0  0  0  0  0
    5.1341   -6.5480   -0.8311 H   0  0  0  0  0  0  0  0  0  0  0  0
    6.6421   -4.7882   -0.0523 H   0  0  0  0  0  0  0  0  0  0  0  0
  1 56  1  0      
  2  8  2  0      
  2  9  2  0      
  2 19  1  0      
  2 20  1  0      
  3 10  2  0      
  3 11  2  0      
  3 15  1  0      
  3 22  1  0      
  4 32  1  0      
  4 53  1  0      
  5 20  1  0      
  6 20  1  0      
  7 20  1  0      
 12 27  2  0      
 61 13  1  0      
 13 62  1  0      
 14 21  1  0      
 14 26  1  0      
 14 66  1  0      
 15 27  1  0      
 15 67  1  0      
 16 33  1  0      
 16 44  1  0      
 16 45  1  0      
 17 39  1  0      
 17 47  1  0      
 48 17  1  0      
 18 46  1  0      
 18 57  1  0      
 18 58  1  0      
 19 21  1  0      
 19 23  2  0      
 21 24  2  0      
 22 23  1  0      
 25 22  2  0      
 23 68  1  0      
 24 25  1  0      
 24 69  1  0      
 25 70  1  0      
 26 31  1  0      
 26 32  1  0      
 26 71  1  0      
 27 28  1  0      
 28 35  1  0      
 28 36  2  0      
 29 30  2  0      
 29 38  1  0      
 29 39  1  0      
 30 37  1  0      
 30 42  1  0      
 31 46  1  0      
 31 72  1  0      
 31 73  1  0      
 32 74  1  0      
 32 75  1  0      
 40 33  1  0      
 33 41  2  0      
 34 38  1  0      
 43 34  1  0      
 34 51  1  0      
 34 52  1  0      
 35 40  2  0      
 35 76  1  0      
 41 36  1  0      
 36 77  1  0      
 37 49  1  0      
 37 50  2  0      
 38 78  1  0      
 38 79  1  0      
 39 80  1  0      
 39 81  1  0      
 40 82  1  0      
 41 83  1  0      
 42 43  1  0      
 42 84  1  0      
 42 85  1  0      
 43 86  1  0      
 43 87  1  0      
 44 48  1  0      
 44 88  1  0      
 44 89  1  0      
 47 45  1  0      
 45 90  1  0      
 45 91  1  0      
 46 92  1  0      
 46 93  1  0      
 47 94  1  0      
 47 95  1  0      
 48 96  1  0      
 48 97  1  0      
 49 54  2  0      
 49 98  1  0      
 55 50  1  0      
 50 99  1  0      
 51100  1  0      
 51101  1  0      
 51102  1  0      
 52103  1  0      
 52104  1  0      
 52105  1  0      
 53 59  1  0      
 53 60  2  0      
 54 56  1  0      
 54106  1  0      
 56 55  2  0      
 55107  1  0      
 57 61  1  0      
 57108  1  0      
 57109  1  0      
 62 58  1  0      
 58110  1  0      
 58111  1  0      
 59 63  2  0      
 59112  1  0      
 64 60  1  0      
 60113  1  0      
 61114  1  0      
 61115  1  0      
 62116  1  0      
 62117  1  0      
 63 65  1  0      
 63118  1  0      
 65 64  2  0      
 64119  1  0      
 65120  1  0      
M  END
