
  Chem3D Core 15.004011618143D

  0  0  0     0  0              0 V3000
M  V30 BEGIN CTAB
M  V30 COUNTS 44 46 0 0 0
M  V30 BEGIN ATOM
M  V30 1 O 2.380361 -0.205254 0.705034 0
M  V30 2 O -2.462344 -3.863180 1.734560 0
M  V30 3 O 2.314105 -4.064077 1.625031 0
M  V30 4 O -5.908928 -0.972017 0.514451 0
M  V30 5 O -4.952372 0.905925 0.005261 0
M  V30 6 O 5.908928 -0.959631 0.726452 0
M  V30 7 O 4.721835 0.872074 0.349813 0
M  V30 8 N -2.352179 -0.302286 0.319396 0
M  V30 9 C -1.195437 -0.782077 0.636912 0
M  V30 10 C 0.027540 -0.167670 0.635486 0
M  V30 11 C -1.199338 -2.055832 1.099956 0
M  V30 12 C 0.206303 1.363319 0.588635 0
M  V30 13 C 1.184114 -0.855959 0.816755 0
M  V30 14 C 1.143310 -2.160081 1.142418 0
M  V30 15 C -0.056318 -2.725857 1.328179 0
M  V30 16 C -2.357917 0.875689 -0.626423 0
M  V30 17 C -3.516203 -0.806127 0.531071 0
M  V30 18 C 1.025648 2.022896 1.725132 0
M  V30 19 C -2.366151 -2.726281 1.312428 0
M  V30 20 C -3.507332 -2.045565 1.049833 0
M  V30 21 C 2.286116 -2.885634 1.324116 0
M  V30 22 C -2.960119 0.558673 -2.021246 0
M  V30 23 C 0.727740 3.526532 1.864742 0
M  V30 24 C 3.519412 -0.944031 0.818646 0
M  V30 25 C 3.471703 -2.246767 1.134576 0
M  V30 26 C -4.762721 -0.255223 0.318803 0
M  V30 27 C 4.718473 -0.314375 0.624550 0
M  V30 28 H -5.759455 -1.918982 0.638697 0
M  V30 29 H 5.789132 -1.894362 0.948604 0
M  V30 30 H 0.610986 1.696856 -0.395971 0
M  V30 31 H -0.772525 1.847970 0.802811 0
M  V30 32 H -0.089877 -3.777102 1.653141 0
M  V30 33 H -2.722162 1.820142 -0.167030 0
M  V30 34 H -1.344191 1.096982 -1.026452 0
M  V30 35 H 0.795244 1.520279 2.695782 0
M  V30 36 H 2.123509 1.949268 1.551761 0
M  V30 37 H -4.430274 -2.600943 1.281007 0
M  V30 38 H -2.895857 1.444913 -2.695782 0
M  V30 39 H -2.406014 -0.276426 -2.511756 0
M  V30 40 H -4.023811 0.248519 -2.035291 0
M  V30 41 H 1.362885 3.989087 2.655350 0
M  V30 42 H 0.930303 4.064077 0.909919 0
M  V30 43 H -0.333813 3.712852 2.146470 0
M  V30 44 H 4.391327 -2.842870 1.251861 0
M  V30 END ATOM
M  V30 BEGIN BOND
M  V30 1 1 13 1
M  V30 2 1 1 24
M  V30 3 2 2 19
M  V30 4 2 3 21
M  V30 5 1 4 26
M  V30 6 1 4 28
M  V30 7 2 5 26
M  V30 8 1 6 27
M  V30 9 1 6 29
M  V30 10 2 7 27
M  V30 11 1 8 9
M  V30 12 1 8 16
M  V30 13 1 17 8
M  V30 14 2 10 9
M  V30 15 1 11 9
M  V30 16 1 10 12
M  V30 17 1 10 13
M  V30 18 2 15 11
M  V30 19 1 11 19
M  V30 20 1 12 18
M  V30 21 1 12 30
M  V30 22 1 12 31
M  V30 23 2 13 14
M  V30 24 1 14 15
M  V30 25 1 21 14
M  V30 26 1 15 32
M  V30 27 1 16 22
M  V30 28 1 16 33
M  V30 29 1 16 34
M  V30 30 2 20 17
M  V30 31 1 17 26
M  V30 32 1 18 23
M  V30 33 1 18 35
M  V30 34 1 18 36
M  V30 35 1 19 20
M  V30 36 1 20 37
M  V30 37 1 25 21
M  V30 38 1 22 38
M  V30 39 1 22 39
M  V30 40 1 22 40
M  V30 41 1 23 41
M  V30 42 1 23 42
M  V30 43 1 23 43
M  V30 44 2 24 25
M  V30 45 1 24 27
M  V30 46 1 25 44
M  V30 END BOND
M  V30 END CTAB
M  END
