
  Chem3D Core 15.003291611123D

 65 68  0  0  0  0  0  0  0  0999 V2000
   -8.1452    1.8348    2.9215 Cl  0  0  0  0  0  0  0  0  0  0  0  0
    1.1529   -2.0581    1.0344 O   0  0  0  0  0  0  0  0  0  0  0  0
    3.9865   -1.5926   -3.6271 O   0  0  0  0  0  0  0  0  0  0  0  0
    3.1054   -1.2638   -0.0769 N   0  0  0  0  0  0  0  0  0  0  0  0
    2.7892   -0.6957    2.1389 N   0  0  0  0  0  0  0  0  0  0  0  0
    4.0826   -0.3518    1.7788 N   0  0  0  0  0  0  0  0  0  0  0  0
   -4.1549   -0.3743    4.9852 N   0  0  0  0  0  0  0  0  0  0  0  0
   -1.2918   -1.1243    4.7166 N   0  0  0  0  0  0  0  0  0  0  0  0
    2.1889   -1.4368    1.0287 C   0  0  0  0  0  0  0  0  0  0  0  0
    4.1915   -0.6792    0.5207 C   0  0  0  0  0  0  0  0  0  0  0  0
    2.9186   -1.6251   -1.4895 C   0  0  0  0  0  0  0  0  0  0  0  0
    2.1429   -0.3766    3.3970 C   0  0  0  0  0  0  0  0  0  0  0  0
    5.4548   -0.4259   -0.2414 C   0  0  0  0  0  0  0  0  0  0  0  0
   -5.1547    0.3858    5.1446 C   0  0  0  0  0  0  0  0  0  0  0  0
    0.7254   -0.9336    3.3960 C   0  0  0  0  0  0  0  0  0  0  0  0
    4.1647   -1.2481   -2.2798 C   0  0  0  0  0  0  0  0  0  0  0  0
   -3.4120   -1.0420    6.0685 C   0  0  0  0  0  0  0  0  0  0  0  0
   -3.5534   -0.7288    3.6876 C   0  0  0  0  0  0  0  0  0  0  0  0
    0.0466   -0.5985    4.7176 C   0  0  0  0  0  0  0  0  0  0  0  0
   -1.8933   -0.7697    6.0142 C   0  0  0  0  0  0  0  0  0  0  0  0
   -2.0347   -0.4567    3.6332 C   0  0  0  0  0  0  0  0  0  0  0  0
   -6.0009    0.6596    4.0701 C   0  0  0  0  0  0  0  0  0  0  0  0
   -5.4099    0.9495    6.3946 C   0  0  0  0  0  0  0  0  0  0  0  0
   -7.1023    1.4972    4.2457 C   0  0  0  0  0  0  0  0  0  0  0  0
    6.4792    0.2290    0.6758 C   0  0  0  0  0  0  0  0  0  0  0  0
   -6.5114    1.7871    6.5703 C   0  0  0  0  0  0  0  0  0  0  0  0
   -7.3576    2.0609    5.4958 C   0  0  0  0  0  0  0  0  0  0  0  0
    5.0819   -1.2680   -4.3557 C   0  0  0  0  0  0  0  0  0  0  0  0
    5.1105   -1.5284   -5.7257 C   0  0  0  0  0  0  0  0  0  0  0  0
    6.1808   -0.6734   -3.7357 C   0  0  0  0  0  0  0  0  0  0  0  0
    6.2381   -1.1943   -6.4757 C   0  0  0  0  0  0  0  0  0  0  0  0
    7.3084   -0.3392   -4.4857 C   0  0  0  0  0  0  0  0  0  0  0  0
    7.3370   -0.5997   -5.8557 C   0  0  0  0  0  0  0  0  0  0  0  0
    2.7454   -2.7215   -1.5718 H   0  0  0  0  0  0  0  0  0  0  0  0
    2.0401   -1.0781   -1.8991 H   0  0  0  0  0  0  0  0  0  0  0  0
    2.7186   -0.8302    4.2347 H   0  0  0  0  0  0  0  0  0  0  0  0
    2.1071    0.7283    3.5258 H   0  0  0  0  0  0  0  0  0  0  0  0
    5.8596   -1.3915   -0.6191 H   0  0  0  0  0  0  0  0  0  0  0  0
    5.2409    0.2490   -1.1002 H   0  0  0  0  0  0  0  0  0  0  0  0
    0.1497   -0.4800    2.5584 H   0  0  0  0  0  0  0  0  0  0  0  0
    0.7612   -2.0385    3.2673 H   0  0  0  0  0  0  0  0  0  0  0  0
    5.0429   -1.7958   -1.8704 H   0  0  0  0  0  0  0  0  0  0  0  0
    4.3386   -0.1518   -2.1973 H   0  0  0  0  0  0  0  0  0  0  0  0
   -3.8030   -0.6762    7.0443 H   0  0  0  0  0  0  0  0  0  0  0  0
   -3.5587   -2.1386    5.9468 H   0  0  0  0  0  0  0  0  0  0  0  0
   -4.0496   -0.1298    2.8915 H   0  0  0  0  0  0  0  0  0  0  0  0
   -3.7019   -1.8218    3.5387 H   0  0  0  0  0  0  0  0  0  0  0  0
    0.6222   -1.0520    5.5552 H   0  0  0  0  0  0  0  0  0  0  0  0
    0.0107    0.5065    4.8463 H   0  0  0  0  0  0  0  0  0  0  0  0
   -1.7206    0.3138    6.2007 H   0  0  0  0  0  0  0  0  0  0  0  0
   -1.4123   -1.4066    6.7900 H   0  0  0  0  0  0  0  0  0  0  0  0
   -1.6438   -0.8228    2.6575 H   0  0  0  0  0  0  0  0  0  0  0  0
   -1.8879    0.6398    3.7547 H   0  0  0  0  0  0  0  0  0  0  0  0
   -5.7996    0.2150    3.0843 H   0  0  0  0  0  0  0  0  0  0  0  0
   -4.7426    0.7335    7.2420 H   0  0  0  0  0  0  0  0  0  0  0  0
    7.4185    0.4173    0.1092 H   0  0  0  0  0  0  0  0  0  0  0  0
    6.0745    1.1946    1.0535 H   0  0  0  0  0  0  0  0  0  0  0  0
    6.6932   -0.4459    1.5346 H   0  0  0  0  0  0  0  0  0  0  0  0
   -6.7128    2.2316    7.5561 H   0  0  0  0  0  0  0  0  0  0  0  0
   -8.2262    2.7215    5.6342 H   0  0  0  0  0  0  0  0  0  0  0  0
    4.2438   -1.9972   -6.2146 H   0  0  0  0  0  0  0  0  0  0  0  0
    6.1582   -0.4680   -2.6553 H   0  0  0  0  0  0  0  0  0  0  0  0
    6.2607   -1.3997   -7.5561 H   0  0  0  0  0  0  0  0  0  0  0  0
    8.1750    0.1298   -3.9968 H   0  0  0  0  0  0  0  0  0  0  0  0
    8.2262   -0.3362   -6.4472 H   0  0  0  0  0  0  0  0  0  0  0  0
  1 24  1  0      
  2  9  2  0      
  3 16  1  0      
  3 28  1  0      
  4  9  1  0      
 10  4  1  0      
  4 11  1  0      
  5  6  1  0      
  5  9  1  0      
  5 12  1  0      
  6 10  2  0      
  7 14  1  0      
  7 17  1  0      
  7 18  1  0      
  8 19  1  0      
 20  8  1  0      
  8 21  1  0      
 10 13  1  0      
 11 16  1  0      
 11 34  1  0      
 11 35  1  0      
 12 15  1  0      
 12 36  1  0      
 12 37  1  0      
 13 25  1  0      
 13 38  1  0      
 13 39  1  0      
 14 22  1  0      
 14 23  2  0      
 15 19  1  0      
 15 40  1  0      
 15 41  1  0      
 16 42  1  0      
 16 43  1  0      
 17 20  1  0      
 17 44  1  0      
 17 45  1  0      
 21 18  1  0      
 18 46  1  0      
 18 47  1  0      
 19 48  1  0      
 19 49  1  0      
 20 50  1  0      
 20 51  1  0      
 21 52  1  0      
 21 53  1  0      
 22 24  2  0      
 22 54  1  0      
 26 23  1  0      
 23 55  1  0      
 24 27  1  0      
 25 56  1  0      
 25 57  1  0      
 25 58  1  0      
 27 26  2  0      
 26 59  1  0      
 27 60  1  0      
 28 29  1  0      
 28 30  2  0      
 29 31  2  0      
 29 61  1  0      
 32 30  1  0      
 30 62  1  0      
 31 33  1  0      
 31 63  1  0      
 33 32  2  0      
 32 64  1  0      
 33 65  1  0      
M  END
