
  Chem3D Core 15.008161521493D

 69 72  0  0  0  0  0  0  0  0999 V2000
    4.1761   -2.9502   -0.3281 O   0  0  0  0  0  0  0  0  0  0  0  0
    2.9991   -2.6925   -0.2611 C   0  0  0  0  0  0  0  0  0  0  0  0
    2.4841   -1.4311   -0.3292 N   0  0  0  0  0  0  0  0  0  0  0  0
    2.9374   -0.1907   -0.6247 C   0  0  0  0  0  0  0  0  0  0  0  0
    4.1345    0.1812   -1.1262 C   0  0  0  0  0  0  0  0  0  0  0  0
    5.0717   -0.7577   -1.4707 O   0  0  0  0  0  0  0  0  0  0  0  0
    6.1874   -0.3944   -2.2404 C   0  0  0  0  0  0  0  0  0  0  0  0
    6.9547   -1.6649   -2.5990 C   0  0  0  0  0  0  0  0  0  0  0  0
    4.3230    1.5088   -1.2735 C   0  0  0  0  0  0  0  0  0  0  0  0
    3.3966    2.4400   -0.9803 C   0  0  0  0  0  0  0  0  0  0  0  0
    3.7257    3.6572   -1.1010 N   0  0  0  0  0  0  0  0  0  0  0  0
    2.8979    4.5481   -0.7622 C   0  0  0  0  0  0  0  0  0  0  0  0
    1.6437    4.2912   -0.3572 C   0  0  0  0  0  0  0  0  0  0  0  0
    0.8735    5.3326   -0.1092 C   0  0  0  0  0  0  0  0  0  0  0  0
    0.1936    6.2438    0.1131 N   0  0  0  0  0  0  0  0  0  0  0  0
    1.2170    3.0094   -0.3304 C   0  0  0  0  0  0  0  0  0  0  0  0
   -0.0181    2.8643   -0.0359 N   0  0  0  0  0  0  0  0  0  0  0  0
   -0.9419    1.9870   -0.1047 C   0  0  0  0  0  0  0  0  0  0  0  0
   -2.0922    2.2641    0.5377 C   0  0  0  0  0  0  0  0  0  0  0  0
   -3.1129    1.3931    0.5537 C   0  0  0  0  0  0  0  0  0  0  0  0
   -3.0539    0.2016   -0.0693 C   0  0  0  0  0  0  0  0  0  0  0  0
   -4.1297   -0.6506   -0.0654 O   0  0  0  0  0  0  0  0  0  0  0  0
   -4.0822   -1.6071    0.9764 C   0  0  0  0  0  0  0  0  0  0  0  0
   -5.1509   -2.6591    0.7842 C   0  0  0  0  0  0  0  0  0  0  0  0
   -6.0163   -2.7540    1.7051 N   0  0  0  0  0  0  0  0  0  0  0  0
   -6.9285   -3.6250    1.5978 C   0  0  0  0  0  0  0  0  0  0  0  0
   -7.0426   -4.4683    0.5601 C   0  0  0  0  0  0  0  0  0  0  0  0
   -6.1327   -4.3797   -0.4205 C   0  0  0  0  0  0  0  0  0  0  0  0
   -5.1701   -3.4538   -0.3000 C   0  0  0  0  0  0  0  0  0  0  0  0
   -1.9641   -0.0049   -0.8346 C   0  0  0  0  0  0  0  0  0  0  0  0
   -1.8486   -1.4199   -1.8276 Cl  0  0  0  0  0  0  0  0  0  0  0  0
   -0.9358    0.8599   -0.8398 C   0  0  0  0  0  0  0  0  0  0  0  0
    2.1631    2.0727   -0.5808 C   0  0  0  0  0  0  0  0  0  0  0  0
    2.0182    0.7568   -0.3546 C   0  0  0  0  0  0  0  0  0  0  0  0
    2.0762   -3.6757   -0.0668 C   0  0  0  0  0  0  0  0  0  0  0  0
    0.7433   -3.5086   -0.0123 C   0  0  0  0  0  0  0  0  0  0  0  0
   -0.2434   -4.6366    0.1841 C   0  0  0  0  0  0  0  0  0  0  0  0
   -1.2695   -4.2637    1.1521 N   0  0  0  0  0  0  0  0  0  0  0  0
   -2.3611   -5.2264    1.1504 C   0  0  0  0  0  0  0  0  0  0  0  0
   -0.7142   -4.1233    2.4900 C   0  0  0  0  0  0  0  0  0  0  0  0
    1.5115   -1.3570   -0.0705 H   0  0  0  0  0  0  0  0  0  0  0  0
    5.8484    0.1095   -3.1758 H   0  0  0  0  0  0  0  0  0  0  0  0
    6.8527    0.2761   -1.6476 H   0  0  0  0  0  0  0  0  0  0  0  0
    7.8559   -1.4283   -3.2104 H   0  0  0  0  0  0  0  0  0  0  0  0
    7.2950   -2.2003   -1.6827 H   0  0  0  0  0  0  0  0  0  0  0  0
    6.3187   -2.3658   -3.1873 H   0  0  0  0  0  0  0  0  0  0  0  0
    5.2945    1.8779   -1.6412 H   0  0  0  0  0  0  0  0  0  0  0  0
    3.2624    5.5864   -0.8563 H   0  0  0  0  0  0  0  0  0  0  0  0
   -0.4383    3.7386    0.3708 H   0  0  0  0  0  0  0  0  0  0  0  0
   -2.2147    3.2064    1.1006 H   0  0  0  0  0  0  0  0  0  0  0  0
   -4.0290    1.6562    1.1103 H   0  0  0  0  0  0  0  0  0  0  0  0
   -3.0899   -2.1133    0.9705 H   0  0  0  0  0  0  0  0  0  0  0  0
   -4.1909   -1.0775    1.9506 H   0  0  0  0  0  0  0  0  0  0  0  0
   -7.6580   -3.6699    2.4243 H   0  0  0  0  0  0  0  0  0  0  0  0
   -7.8559   -5.2104    0.5152 H   0  0  0  0  0  0  0  0  0  0  0  0
   -6.1733   -5.0472   -1.2963 H   0  0  0  0  0  0  0  0  0  0  0  0
   -4.4002   -3.3497   -1.0814 H   0  0  0  0  0  0  0  0  0  0  0  0
   -0.1033    0.6480   -1.5281 H   0  0  0  0  0  0  0  0  0  0  0  0
    1.1108    0.4121    0.1608 H   0  0  0  0  0  0  0  0  0  0  0  0
    2.4555   -4.7080    0.0348 H   0  0  0  0  0  0  0  0  0  0  0  0
    0.2786   -2.5179   -0.1318 H   0  0  0  0  0  0  0  0  0  0  0  0
   -0.7114   -4.8016   -0.8166 H   0  0  0  0  0  0  0  0  0  0  0  0
    0.2631   -5.5855    0.4741 H   0  0  0  0  0  0  0  0  0  0  0  0
   -3.1685   -4.9133    1.8517 H   0  0  0  0  0  0  0  0  0  0  0  0
   -2.8293   -5.2963    0.1420 H   0  0  0  0  0  0  0  0  0  0  0  0
   -2.0160   -6.2438    1.4452 H   0  0  0  0  0  0  0  0  0  0  0  0
   -1.4988   -3.7959    3.2104 H   0  0  0  0  0  0  0  0  0  0  0  0
    0.0804   -3.3438    2.5184 H   0  0  0  0  0  0  0  0  0  0  0  0
   -0.2776   -5.0792    2.8599 H   0  0  0  0  0  0  0  0  0  0  0  0
  1  2  2  0      
  2  3  1  0      
  2 35  1  0      
  3  4  1  0      
  3 41  1  0      
  4  5  2  0      
 34  4  1  0      
  5  6  1  0      
  5  9  1  0      
  6  7  1  0      
  7  8  1  0      
  7 42  1  0      
  7 43  1  0      
  8 44  1  0      
  8 45  1  0      
  8 46  1  0      
  9 10  2  0      
  9 47  1  0      
 10 11  1  0      
 33 10  1  0      
 12 11  2  0      
 12 13  1  0      
 12 48  1  0      
 13 14  1  0      
 13 16  2  0      
 14 15  3  0      
 16 17  1  0      
 16 33  1  0      
 17 18  1  0      
 17 49  1  0      
 18 19  1  0      
 18 32  2  0      
 19 20  2  0      
 19 50  1  0      
 20 21  1  0      
 20 51  1  0      
 21 22  1  0      
 21 30  2  0      
 22 23  1  0      
 23 24  1  0      
 23 52  1  0      
 23 53  1  0      
 24 25  2  0      
 29 24  1  0      
 25 26  1  0      
 27 26  2  0      
 26 54  1  0      
 27 28  1  0      
 27 55  1  0      
 28 29  2  0      
 28 56  1  0      
 29 57  1  0      
 30 31  1  0      
 30 32  1  0      
 32 58  1  0      
 33 34  2  0      
 34 59  1  0      
 35 36  2  0      
 35 60  1  0      
 36 37  1  0      
 36 61  1  0      
 37 38  1  0      
 37 62  1  0      
 37 63  1  0      
 38 39  1  0      
 38 40  1  0      
 39 64  1  0      
 39 65  1  0      
 39 66  1  0      
 40 67  1  0      
 40 68  1  0      
 40 69  1  0      
M  END
