
  Chem3D Core 15.003291616343D

  0  0  0     0  0              0 V3000
M  V30 BEGIN CTAB
M  V30 COUNTS 54 58 0 0 0
M  V30 BEGIN ATOM
M  V30 1 Cl 3.752702 6.458487 -2.327426 0
M  V30 2 O 2.571907 1.812346 -0.392557 0
M  V30 3 O -5.745274 3.755875 -0.520554 0
M  V30 4 O -3.645560 -5.200281 1.769799 0
M  V30 5 N -0.094158 1.205134 -0.126457 0
M  V30 6 N 0.374060 -0.632856 0.631407 0
M  V30 7 C -1.219335 0.676819 0.136434 0
M  V30 8 C -0.894842 -0.573168 0.554678 0
M  V30 9 C 0.861244 0.440125 0.181814 0
M  V30 10 C -2.352908 1.394300 -0.018986 0
M  V30 11 C -1.610007 -1.684277 0.848111 0
M  V30 12 C 2.161168 0.739775 0.053855 0
M  V30 13 C 3.807260 1.831788 -0.405707 0
M  V30 14 C 3.188193 -0.056163 0.379215 0
M  V30 15 C -2.362577 2.547135 -0.719137 0
M  V30 16 C -3.518496 1.092005 0.582436 0
M  V30 17 C -1.045832 -2.730371 1.487165 0
M  V30 18 C -2.879279 -1.891549 0.450888 0
M  V30 19 C 4.273114 0.665650 0.075539 0
M  V30 20 C 4.521340 2.888951 -0.847847 0
M  V30 21 C -3.476108 3.280310 -0.873963 0
M  V30 22 C -4.631170 1.828913 0.433021 0
M  V30 23 C -4.656732 2.939945 -0.326391 0
M  V30 24 C -1.730962 -3.845967 1.782358 0
M  V30 25 C -3.564398 -3.009838 0.740192 0
M  V30 26 C -3.021120 -4.020357 1.444066 0
M  V30 27 C 3.899052 3.995782 -1.305360 0
M  V30 28 C 5.869370 2.895540 -0.855724 0
M  V30 29 C 4.587936 5.060121 -1.749853 0
M  V30 30 C 6.566259 3.954323 -1.297989 0
M  V30 31 C 5.928834 5.044037 -1.748068 0
M  V30 32 C -6.924990 3.491886 0.203001 0
M  V30 33 C -4.933237 -5.447810 1.254517 0
M  V30 34 H 0.061567 2.171686 -0.489496 0
M  V30 35 H 3.160041 -1.069020 0.798730 0
M  V30 36 H -1.465076 2.928716 -1.232571 0
M  V30 37 H -3.585336 0.263932 1.304180 0
M  V30 38 H 0.003287 -2.705448 1.828149 0
M  V30 39 H -3.387831 -1.178829 -0.215150 0
M  V30 40 H 5.307582 0.329683 0.210062 0
M  V30 41 H -3.425718 4.202788 -1.478866 0
M  V30 42 H -5.528255 1.503313 0.983845 0
M  V30 43 H -1.217159 -4.657254 2.327426 0
M  V30 44 H -4.592738 -3.084835 0.351439 0
M  V30 45 H 2.797914 4.055812 -1.326464 0
M  V30 46 H 6.456788 2.034329 -0.500123 0
M  V30 47 H 7.669407 3.930914 -1.292281 0
M  V30 48 H 6.512014 5.907644 -2.108724 0
M  V30 49 H -7.669407 4.275843 -0.062427 0
M  V30 50 H -7.345214 2.503508 -0.088347 0
M  V30 51 H -6.729366 3.552762 1.296917 0
M  V30 52 H -5.248660 -6.458487 1.598305 0
M  V30 53 H -5.659380 -4.704856 1.653358 0
M  V30 54 H -4.910733 -5.449084 0.141828 0
M  V30 END ATOM
M  V30 BEGIN BOND
M  V30 1 1 1 29
M  V30 2 1 12 2
M  V30 3 1 13 2
M  V30 4 1 3 23
M  V30 5 1 3 32
M  V30 6 1 4 26
M  V30 7 1 4 33
M  V30 8 1 7 5
M  V30 9 1 5 9
M  V30 10 1 5 34
M  V30 11 1 8 6
M  V30 12 2 9 6
M  V30 13 2 8 7
M  V30 14 1 7 10
M  V30 15 1 8 11
M  V30 16 1 9 12
M  V30 17 1 10 15
M  V30 18 2 10 16
M  V30 19 1 11 17
M  V30 20 2 11 18
M  V30 21 2 12 14
M  V30 22 2 19 13
M  V30 23 1 13 20
M  V30 24 1 14 19
M  V30 25 1 14 35
M  V30 26 2 15 21
M  V30 27 1 15 36
M  V30 28 1 22 16
M  V30 29 1 16 37
M  V30 30 2 17 24
M  V30 31 1 17 38
M  V30 32 1 25 18
M  V30 33 1 18 39
M  V30 34 1 19 40
M  V30 35 1 20 27
M  V30 36 2 20 28
M  V30 37 1 21 23
M  V30 38 1 21 41
M  V30 39 2 23 22
M  V30 40 1 22 42
M  V30 41 1 24 26
M  V30 42 1 24 43
M  V30 43 2 26 25
M  V30 44 1 25 44
M  V30 45 2 27 29
M  V30 46 1 27 45
M  V30 47 1 30 28
M  V30 48 1 28 46
M  V30 49 1 29 31
M  V30 50 2 31 30
M  V30 51 1 30 47
M  V30 52 1 31 48
M  V30 53 1 32 49
M  V30 54 1 32 50
M  V30 55 1 32 51
M  V30 56 1 33 52
M  V30 57 1 33 53
M  V30 58 1 33 54
M  V30 END BOND
M  V30 END CTAB
M  END
