
  Chem3D Core 15.001061617203D

 32 33  0  0  0  0  0  0  0  0999 V2000
    1.3093   -3.2645    0.7889 F   0  0  0  0  0  0  0  0  0  0  0  0
   -0.5070   -4.2856   -0.1187 F   0  0  0  0  0  0  0  0  0  0  0  0
   -0.5108   -3.7009    2.0786 F   0  0  0  0  0  0  0  0  0  0  0  0
    2.6456    0.3648   -0.5893 O   0  0  0  0  0  0  0  0  0  0  0  0
   -0.7995    3.0137   -1.5424 O   0  0  0  0  0  0  0  0  0  0  0  0
   -4.0955   -2.6196    0.6089 O   0  5  0  0  0  0  0  0  0  0  0  0
   -2.2944   -3.9525    0.9667 O   0  0  0  0  0  0  0  0  0  0  0  0
    0.4291    1.2857   -0.4248 N   0  0  0  0  0  0  0  0  0  0  0  0
    0.9973    3.4423   -0.0231 N   0  0  0  0  0  0  0  0  0  0  0  0
   -2.7966   -2.7835    0.6545 N   0  3  0  0  0  0  0  0  0  0  0  0
    2.2818    2.7575   -0.1798 C   0  0  0  0  0  0  0  0  0  0  0  0
    1.9008    1.3019   -0.4269 C   0  0  0  0  0  0  0  0  0  0  0  0
    3.1212    2.8886    1.0843 C   0  0  0  0  0  0  0  0  0  0  0  0
    3.1211    3.3414   -1.3086 C   0  0  0  0  0  0  0  0  0  0  0  0
    0.0672    2.6428   -0.7871 C   0  0  0  0  0  0  0  0  0  0  0  0
   -0.3409    0.3143   -0.1672 C   0  0  0  0  0  0  0  0  0  0  0  0
    0.1938   -0.9303    0.1653 C   0  0  0  0  0  0  0  0  0  0  0  0
   -1.7239    0.4888   -0.2158 C   0  0  0  0  0  0  0  0  0  0  0  0
   -0.6546   -2.0005    0.4491 C   0  0  0  0  0  0  0  0  0  0  0  0
   -2.0376   -1.8260    0.4005 C   0  0  0  0  0  0  0  0  0  0  0  0
   -2.5723   -0.5814    0.0681 C   0  0  0  0  0  0  0  0  0  0  0  0
   -0.0808   -3.3363    0.8059 C   0  0  0  0  0  0  0  0  0  0  0  0
    0.8043    4.2856    0.5020 H   0  0  0  0  0  0  0  0  0  0  0  0
    4.0955    3.3656    0.8355 H   0  0  0  0  0  0  0  0  0  0  0  0
    2.5792    3.5179    1.8252 H   0  0  0  0  0  0  0  0  0  0  0  0
    3.3021    1.8787    1.5157 H   0  0  0  0  0  0  0  0  0  0  0  0
    4.0955    3.6944   -0.9028 H   0  0  0  0  0  0  0  0  0  0  0  0
    3.3023    2.5584   -2.0786 H   0  0  0  0  0  0  0  0  0  0  0  0
    2.5791    4.1975   -1.7691 H   0  0  0  0  0  0  0  0  0  0  0  0
    1.2845   -1.0678    0.2038 H   0  0  0  0  0  0  0  0  0  0  0  0
   -2.1455    1.4704   -0.4780 H   0  0  0  0  0  0  0  0  0  0  0  0
   -3.6630   -0.4438    0.0299 H   0  0  0  0  0  0  0  0  0  0  0  0
  1 22  1  0      
  2 22  1  0      
  3 22  1  0      
  4 12  2  0      
  5 15  2  0      
  6 10  1  0      
  7 10  2  0      
  8 12  1  0      
 15  8  1  0      
  8 16  1  0      
 11  9  1  0      
 15  9  1  0      
  9 23  1  0      
 10 20  1  0      
 12 11  1  0      
 11 13  1  0      
 11 14  1  0      
 13 24  1  0      
 13 25  1  0      
 13 26  1  0      
 14 27  1  0      
 14 28  1  0      
 14 29  1  0      
 16 17  1  0      
 16 18  2  0      
 17 19  2  0      
 17 30  1  0      
 21 18  1  0      
 18 31  1  0      
 19 20  1  0      
 19 22  1  0      
 20 21  2  0      
 21 32  1  0      
M  CHG  2   6  -1  10   1
M  END
