
  Chem3D Core 15.003291616303D

  0  0  0     0  0              0 V3000
M  V30 BEGIN CTAB
M  V30 COUNTS 76 78 0 0 0
M  V30 BEGIN ATOM
M  V30 1 N 0.471253 3.709848 1.766153 0
M  V30 2 C 0.517224 2.639223 1.086892 0
M  V30 3 N 1.574504 4.071501 0.048794 0
M  V30 4 C 1.121896 4.578330 1.116924 0
M  V30 5 N -0.027979 1.438414 1.346623 0
M  V30 6 C -0.769817 1.035680 2.417139 0
M  V30 7 C 1.229398 2.856292 -0.032345 0
M  V30 8 C -4.361853 -3.161876 5.253235 0
M  V30 9 C -5.560564 -3.257870 5.859965 0
M  V30 10 C -3.554694 -4.241449 5.214361 0
M  V30 11 C 2.385610 4.823836 -0.950645 0
M  V30 12 C -5.955519 -4.413733 6.415217 0
M  V30 13 N -2.347908 -0.571373 3.329051 0
M  V30 14 C -1.279743 -0.401747 2.339286 0
M  V30 15 C -3.950545 -1.841581 4.638302 0
M  V30 16 C -3.966328 -5.393810 5.773575 0
M  V30 17 C -5.160719 -5.492243 6.374303 0
M  V30 18 O -0.989100 1.734808 3.374932 0
M  V30 19 C -2.771567 -1.938330 3.654828 0
M  V30 20 C -2.195506 -4.200002 4.553192 0
M  V30 21 N 3.711481 4.660974 -3.085238 0
M  V30 22 F -6.368574 -2.210114 5.920967 0
M  V30 23 C 5.142062 4.620180 -5.133439 0
M  V30 24 C -1.671424 -2.779061 4.313401 0
M  V30 25 F -5.547936 -6.634386 6.919190 0
M  V30 26 C 2.906721 3.927080 -2.106444 0
M  V30 27 C 4.293768 3.810939 -4.124625 0
M  V30 28 C 1.506579 5.945391 -1.548313 0
M  V30 29 C 3.610967 5.455021 -0.248514 0
M  V30 30 C -1.716080 -0.875143 0.937279 0
M  V30 31 C 5.746182 3.648509 -6.169525 0
M  V30 32 C 4.268980 5.654713 -5.871954 0
M  V30 33 C 6.288243 5.348985 -4.402994 0
M  V30 34 C -3.063547 -0.327307 0.432615 0
M  V30 35 C -3.096530 1.193557 0.238674 0
M  V30 36 H 1.269851 5.617067 1.429286 0
M  V30 37 H 0.171463 0.786374 0.603283 0
M  V30 38 H 1.469739 2.164884 -0.843789 0
M  V30 39 H -6.939474 -4.478628 6.908363 0
M  V30 40 H -2.054058 -0.088867 4.215298 0
M  V30 41 H -0.384161 -0.987405 2.656987 0
M  V30 42 H -4.815099 -1.380982 4.103281 0
M  V30 43 H -3.677844 -1.160448 5.479971 0
M  V30 44 H -3.314489 -6.282568 5.739950 0
M  V30 45 H -3.125099 -2.452827 2.729427 0
M  V30 46 H -1.450729 -4.759126 5.168245 0
M  V30 47 H -2.285574 -4.731116 3.575014 0
M  V30 48 H 3.108694 5.385777 -3.546173 0
M  V30 49 H -1.370773 -2.307277 5.278666 0
M  V30 50 H -0.759170 -2.847491 3.677596 0
M  V30 51 H 3.524855 3.105246 -1.672705 0
M  V30 52 H 2.042022 3.474073 -2.645996 0
M  V30 53 H 4.936209 3.031612 -3.650866 0
M  V30 54 H 3.475453 3.286273 -4.671017 0
M  V30 55 H 2.068000 6.579917 -2.268994 0
M  V30 56 H 1.118466 6.634386 -0.765659 0
M  V30 57 H 0.627472 5.518206 -2.082336 0
M  V30 58 H 4.248515 4.668752 0.216193 0
M  V30 59 H 4.247923 6.033769 -0.953594 0
M  V30 60 H 3.321748 6.169197 0.553402 0
M  V30 61 H -0.926721 -0.649347 0.183937 0
M  V30 62 H -1.776728 -1.990299 0.945098 0
M  V30 63 H 6.367814 4.188295 -6.919190 0
M  V30 64 H 6.398024 2.888653 -5.682079 0
M  V30 65 H 4.950743 3.102698 -6.725576 0
M  V30 66 H 4.857310 6.200426 -6.643904 0
M  V30 67 H 3.854561 6.419773 -5.178477 0
M  V30 68 H 3.411603 5.165525 -6.386940 0
M  V30 69 H 6.931767 4.632140 -3.844590 0
M  V30 70 H 6.939474 5.897446 -5.120605 0
M  V30 71 H 5.903910 6.095302 -3.672027 0
M  V30 72 H -3.292801 -0.807653 -0.550418 0
M  V30 73 H -3.885734 -0.627492 1.124020 0
M  V30 74 H -4.057166 1.514418 -0.226298 0
M  V30 75 H -3.012227 1.732647 1.208370 0
M  V30 76 H -2.271491 1.533002 -0.428178 0
M  V30 END ATOM
M  V30 BEGIN BOND
M  V30 1 1 2 1
M  V30 2 2 4 1
M  V30 3 1 2 5
M  V30 4 2 2 7
M  V30 5 1 3 4
M  V30 6 1 7 3
M  V30 7 1 3 11
M  V30 8 1 4 36
M  V30 9 1 5 6
M  V30 10 1 5 37
M  V30 11 1 6 14
M  V30 12 2 6 18
M  V30 13 1 7 38
M  V30 14 1 8 9
M  V30 15 2 8 10
M  V30 16 1 15 8
M  V30 17 2 9 12
M  V30 18 1 9 22
M  V30 19 1 16 10
M  V30 20 1 10 20
M  V30 21 1 11 26
M  V30 22 1 11 28
M  V30 23 1 11 29
M  V30 24 1 12 17
M  V30 25 1 12 39
M  V30 26 1 14 13
M  V30 27 1 19 13
M  V30 28 1 13 40
M  V30 29 1 14 30
M  V30 30 1 14 41
M  V30 31 1 19 15
M  V30 32 1 15 42
M  V30 33 1 15 43
M  V30 34 2 17 16
M  V30 35 1 16 44
M  V30 36 1 17 25
M  V30 37 1 19 24
M  V30 38 1 19 45
M  V30 39 1 20 24
M  V30 40 1 20 46
M  V30 41 1 20 47
M  V30 42 1 21 26
M  V30 43 1 21 27
M  V30 44 1 21 48
M  V30 45 1 23 27
M  V30 46 1 23 31
M  V30 47 1 23 32
M  V30 48 1 23 33
M  V30 49 1 24 49
M  V30 50 1 24 50
M  V30 51 1 26 51
M  V30 52 1 26 52
M  V30 53 1 27 53
M  V30 54 1 27 54
M  V30 55 1 28 55
M  V30 56 1 28 56
M  V30 57 1 28 57
M  V30 58 1 29 58
M  V30 59 1 29 59
M  V30 60 1 29 60
M  V30 61 1 30 34
M  V30 62 1 30 61
M  V30 63 1 30 62
M  V30 64 1 31 63
M  V30 65 1 31 64
M  V30 66 1 31 65
M  V30 67 1 32 66
M  V30 68 1 32 67
M  V30 69 1 32 68
M  V30 70 1 33 69
M  V30 71 1 33 70
M  V30 72 1 33 71
M  V30 73 1 34 35
M  V30 74 1 34 72
M  V30 75 1 34 73
M  V30 76 1 35 74
M  V30 77 1 35 75
M  V30 78 1 35 76
M  V30 END BOND
M  V30 END CTAB
M  END
