
  Chem3D Core 15.003281611003D

 23 24  0  0  0  0  0  0  0  0999 V2000
   -2.8914    4.6870    0.9279 O   0  0  0  0  0  0  0  0  0  0  0  0
   -2.1584    3.8705    0.4288 C   0  0  0  0  0  0  0  0  0  0  0  0
   -1.2614    4.1856   -0.5562 N   0  0  0  0  0  0  0  0  0  0  0  0
   -0.5350    3.0812   -0.9142 C   0  0  0  0  0  0  0  0  0  0  0  0
    0.3482    3.0779   -1.7309 O   0  0  0  0  0  0  0  0  0  0  0  0
   -0.9862    2.0124   -0.1790 N   0  0  0  0  0  0  0  0  0  0  0  0
   -2.0428    2.3917    0.7572 C   0  0  0  0  0  0  0  0  0  0  0  0
   -0.6583    0.7225   -0.4234 N   0  0  0  0  0  0  0  0  0  0  0  0
    0.5049    0.2695   -0.2200 C   0  0  0  0  0  0  0  0  0  0  0  0
    0.8742   -1.0013   -0.4472 C   0  0  0  0  0  0  0  0  0  0  0  0
    2.1031   -1.4993   -0.2488 C   0  0  0  0  0  0  0  0  0  0  0  0
    2.0021   -2.7816   -0.6154 C   0  0  0  0  0  0  0  0  0  0  0  0
    0.7234   -2.9327   -0.9991 C   0  0  0  0  0  0  0  0  0  0  0  0
    0.1092   -1.8672   -0.8771 O   0  0  0  0  0  0  0  0  0  0  0  0
    0.2148   -4.0022   -1.4246 N   0  3  0  0  0  0  0  0  0  0  0  0
   -1.0391   -4.0811   -1.8113 O   0  0  0  0  0  0  0  0  0  0  0  0
    0.9275   -5.1017   -1.5260 O   0  5  0  0  0  0  0  0  0  0  0  0
   -1.1410    5.1017   -0.9475 H   0  0  0  0  0  0  0  0  0  0  0  0
   -1.7187    2.2407    1.8113 H   0  0  0  0  0  0  0  0  0  0  0  0
   -2.9953    1.8602    0.5350 H   0  0  0  0  0  0  0  0  0  0  0  0
    1.2544    0.9797    0.1696 H   0  0  0  0  0  0  0  0  0  0  0  0
    2.9953   -0.9817    0.1236 H   0  0  0  0  0  0  0  0  0  0  0  0
    2.8048   -3.5291   -0.6014 H   0  0  0  0  0  0  0  0  0  0  0  0
  1  2  2  0      
  3  2  1  0      
  2  7  1  0      
  4  3  1  0      
  3 18  1  0      
  4  5  2  0      
  4  6  1  0      
  7  6  1  0      
  6  8  1  0      
  7 19  1  0      
  7 20  1  0      
  8  9  2  0      
  9 10  1  0      
  9 21  1  0      
 10 11  2  0      
 10 14  1  0      
 11 12  1  0      
 11 22  1  0      
 12 13  2  0      
 12 23  1  0      
 13 14  1  0      
 13 15  1  0      
 15 16  2  0      
 15 17  1  0      
M  CHG  2  15   1  17  -1
M  END
