
  Chem3D Core 15.008141513383D

 55 58  0  0  0  0  0  0  0  0999 V2000
   -4.0373   -1.1707   -0.8165 O   0  0  0  0  0  0  0  0  0  0  0  0
   -3.9250   -2.3056   -0.1546 N   0  0  0  0  0  0  0  0  0  0  0  0
   -2.8168   -2.3929    0.4477 C   0  0  0  0  0  0  0  0  0  0  0  0
   -2.2202   -1.2239    0.1727 C   0  0  0  0  0  0  0  0  0  0  0  0
   -3.0075   -0.5101   -0.6573 C   0  0  0  0  0  0  0  0  0  0  0  0
   -2.3998   -3.4358    1.2206 C   0  0  0  0  0  0  0  0  0  0  0  0
   -3.1900   -4.3179    1.4712 O   0  0  0  0  0  0  0  0  0  0  0  0
   -1.1494   -3.6314    1.7377 N   0  0  0  0  0  0  0  0  0  0  0  0
    2.8835   -2.2248    2.0697 N   0  0  0  0  0  0  0  0  0  0  0  0
    1.8170   -1.2418    2.1985 C   0  0  0  0  0  0  0  0  0  0  0  0
    0.4640   -1.9022    2.5043 C   0  0  0  0  0  0  0  0  0  0  0  0
    0.0932   -2.9187    1.4156 C   0  0  0  0  0  0  0  0  0  0  0  0
    1.2527   -3.9254    1.3101 C   0  0  0  0  0  0  0  0  0  0  0  0
    2.5790   -3.1984    1.0302 C   0  0  0  0  0  0  0  0  0  0  0  0
    4.1625   -1.5768    1.8201 C   0  0  0  0  0  0  0  0  0  0  0  0
   -2.8058    0.6813   -1.2820 C   0  0  0  0  0  0  0  0  0  0  0  0
   -3.7551    1.1339   -2.1434 C   0  0  0  0  0  0  0  0  0  0  0  0
   -3.5850    2.2991   -2.7913 C   0  0  0  0  0  0  0  0  0  0  0  0
   -2.5049    3.0704   -2.6314 C   0  0  0  0  0  0  0  0  0  0  0  0
   -1.5817    2.6142   -1.7786 C   0  0  0  0  0  0  0  0  0  0  0  0
   -1.6952    1.4498   -1.1112 C   0  0  0  0  0  0  0  0  0  0  0  0
   -0.6653    1.1326   -0.2652 O   0  0  0  0  0  0  0  0  0  0  0  0
    0.5509    0.7595   -0.8273 C   0  0  0  0  0  0  0  0  0  0  0  0
    0.6928   -0.3522   -1.7137 C   0  0  0  0  0  0  0  0  0  0  0  0
    1.9177    0.0744   -1.5842 C   0  0  0  0  0  0  0  0  0  0  0  0
    3.2084    0.3288   -1.5932 C   0  0  0  0  0  0  0  0  0  0  0  0
    2.9207    1.3652   -0.7617 C   0  0  0  0  0  0  0  0  0  0  0  0
    1.6107    1.5619   -0.3896 C   0  0  0  0  0  0  0  0  0  0  0  0
    4.2790   -0.1014   -2.0735 N   0  3  0  0  0  0  0  0  0  0  0  0
    4.3361   -1.1539   -2.8553 O   0  0  0  0  0  0  0  0  0  0  0  0
    5.4122    0.4840   -1.7709 O   0  5  0  0  0  0  0  0  0  0  0  0
   -2.3510    4.2505   -3.2886 O   0  0  0  0  0  0  0  0  0  0  0  0
   -4.9078    0.4611   -2.4286 O   0  0  0  0  0  0  0  0  0  0  0  0
   -1.2515   -0.9425    0.5700 H   0  0  0  0  0  0  0  0  0  0  0  0
   -1.0994   -4.4078    2.3972 H   0  0  0  0  0  0  0  0  0  0  0  0
    2.0539   -0.5255    3.0218 H   0  0  0  0  0  0  0  0  0  0  0  0
    1.7235   -0.6436    1.2635 H   0  0  0  0  0  0  0  0  0  0  0  0
    0.5230   -2.4223    3.4899 H   0  0  0  0  0  0  0  0  0  0  0  0
   -0.3277   -1.1241    2.6040 H   0  0  0  0  0  0  0  0  0  0  0  0
    0.0444   -2.4632    0.4017 H   0  0  0  0  0  0  0  0  0  0  0  0
    1.3391   -4.5004    2.2628 H   0  0  0  0  0  0  0  0  0  0  0  0
    1.0446   -4.6649    0.4998 H   0  0  0  0  0  0  0  0  0  0  0  0
    3.3920   -3.9621    0.9737 H   0  0  0  0  0  0  0  0  0  0  0  0
    2.5263   -2.7032    0.0309 H   0  0  0  0  0  0  0  0  0  0  0  0
    4.9858   -2.3260    1.7769 H   0  0  0  0  0  0  0  0  0  0  0  0
    4.4174   -0.8699    2.6425 H   0  0  0  0  0  0  0  0  0  0  0  0
    4.1600   -1.0082    0.8625 H   0  0  0  0  0  0  0  0  0  0  0  0
   -4.3662    2.6447   -3.4899 H   0  0  0  0  0  0  0  0  0  0  0  0
   -0.6835    3.2367   -1.6229 H   0  0  0  0  0  0  0  0  0  0  0  0
   -0.3854   -0.4416   -1.6075 H   0  0  0  0  0  0  0  0  0  0  0  0
    2.1354   -0.7952   -2.2735 H   0  0  0  0  0  0  0  0  0  0  0  0
    3.7161    2.0234   -0.3741 H   0  0  0  0  0  0  0  0  0  0  0  0
    1.4039    2.3927    0.3086 H   0  0  0  0  0  0  0  0  0  0  0  0
   -1.5179    4.6649   -3.0116 H   0  0  0  0  0  0  0  0  0  0  0  0
   -5.4122    0.9485   -3.0999 H   0  0  0  0  0  0  0  0  0  0  0  0
  1  2  1  0      
  5  1  1  0      
  2  3  2  0      
  3  4  1  0      
  3  6  1  0      
  5  4  2  0      
  4 34  1  0      
  5 16  1  0      
  6  7  2  0      
  6  8  1  0      
  8 12  1  0      
  8 35  1  0      
  9 10  1  0      
  9 14  1  0      
  9 15  1  0      
 10 11  1  0      
 10 36  1  0      
 10 37  1  0      
 11 12  1  0      
 11 38  1  0      
 11 39  1  0      
 12 13  1  0      
 12 40  1  0      
 13 14  1  0      
 13 41  1  0      
 13 42  1  0      
 14 43  1  0      
 14 44  1  0      
 15 45  1  0      
 15 46  1  0      
 15 47  1  0      
 16 17  1  0      
 16 21  2  0      
 17 18  2  0      
 17 33  1  0      
 18 19  1  0      
 18 48  1  0      
 19 20  2  0      
 19 32  1  0      
 20 21  1  0      
 20 49  1  0      
 21 22  1  0      
 22 23  1  0      
 23 24  1  0      
 23 28  2  0      
 24 25  2  0      
 24 50  1  0      
 25 26  1  0      
 25 51  1  0      
 26 27  2  0      
 26 29  1  0      
 27 28  1  0      
 27 52  1  0      
 28 53  1  0      
 29 30  2  0      
 29 31  1  0      
 32 54  1  0      
 33 55  1  0      
M  CHG  2  29   1  31  -1
M  END
