
  Chem3D Core 15.002041610583D

 73 76  0  0  0  0  0  0  0  0999 V2000
    6.2773    2.7803   -0.9279 C   0  0  0  0  0  0  0  0  0  0  0  0
    7.3617    1.9914   -0.9536 C   0  0  0  0  0  0  0  0  0  0  0  0
    7.1928    0.6694   -0.8510 C   0  0  0  0  0  0  0  0  0  0  0  0
    5.9392    0.2085   -0.7287 C   0  0  0  0  0  0  0  0  0  0  0  0
    4.9585    1.0111   -0.7137 N   0  0  0  0  0  0  0  0  0  0  0  0
    5.0299    2.2800   -0.8036 C   0  0  0  0  0  0  0  0  0  0  0  0
    3.8598    2.9851   -0.7672 C   0  0  0  0  0  0  0  0  0  0  0  0
    2.6887    2.3061   -0.6531 C   0  0  0  0  0  0  0  0  0  0  0  0
    1.4680    2.8751   -0.6064 C   0  0  0  0  0  0  0  0  0  0  0  0
    1.3606    4.1329   -0.6682 N   0  0  0  0  0  0  0  0  0  0  0  0
    2.4125    4.8204   -0.7752 C   0  0  0  0  0  0  0  0  0  0  0  0
    3.6634    4.3258   -0.8299 C   0  0  0  0  0  0  0  0  0  0  0  0
    5.8059   -1.0523   -0.6307 N   0  0  0  0  0  0  0  0  0  0  0  0
    4.4948   -1.7235   -0.4822 C   0  0  0  0  0  0  0  0  0  0  0  0
    4.6705   -3.2506   -0.3408 C   0  0  0  0  0  0  0  0  0  0  0  0
    3.3082   -3.9275   -0.0995 C   0  0  0  0  0  0  0  0  0  0  0  0
    3.4150   -5.4506   -0.1511 C   0  0  0  0  0  0  0  0  0  0  0  0
    3.9507   -5.8674   -1.3819 O   0  0  0  0  0  0  0  0  0  0  0  0
    5.2602   -5.3928   -1.5703 C   0  0  0  0  0  0  0  0  0  0  0  0
    5.2797   -3.8655   -1.6142 C   0  0  0  0  0  0  0  0  0  0  0  0
    0.4684    2.0945   -0.4990 N   0  0  0  0  0  0  0  0  0  0  0  0
   -0.9470    2.5330   -0.4325 C   0  0  0  0  0  0  0  0  0  0  0  0
   -1.3157    2.9668    0.9934 C   0  0  0  0  0  0  0  0  0  0  0  0
   -2.7979    3.3562    1.0812 C   0  0  0  0  0  0  0  0  0  0  0  0
   -3.7137    2.2036    0.6276 C   0  0  0  0  0  0  0  0  0  0  0  0
   -3.3373    1.7685   -0.7990 C   0  0  0  0  0  0  0  0  0  0  0  0
   -1.8542    1.3792   -0.8857 C   0  0  0  0  0  0  0  0  0  0  0  0
   -5.1042    2.6552    0.7407 N   0  0  0  0  0  0  0  0  0  0  0  0
   -6.1726    1.7100    0.3888 C   0  0  0  0  0  0  0  0  0  0  0  0
   -6.1638    0.4363    1.2439 C   0  0  0  0  0  0  0  0  0  0  0  0
   -5.2345   -0.4890    0.7346 O   0  0  0  0  0  0  0  0  0  0  0  0
   -5.1905   -1.6785    1.4929 C   0  0  0  0  0  0  0  0  0  0  0  0
   -7.5073    2.4557    0.5854 C   0  0  0  0  0  0  0  0  0  0  0  0
    4.8613    5.5691   -0.9734 Cl  0  0  0  0  0  0  0  0  0  0  0  0
    5.5597   -3.5158    0.8146 C   0  0  0  0  0  0  0  0  0  0  0  0
    6.2493   -3.7502    1.7153 N   0  0  0  0  0  0  0  0  0  0  0  0
    6.5123    3.8434   -1.0192 H   0  0  0  0  0  0  0  0  0  0  0  0
    8.3746    2.4161   -1.0566 H   0  0  0  0  0  0  0  0  0  0  0  0
    8.0682   -0.0011   -0.8681 H   0  0  0  0  0  0  0  0  0  0  0  0
    2.6658    1.2051   -0.5913 H   0  0  0  0  0  0  0  0  0  0  0  0
    2.2204    5.9077   -0.8216 H   0  0  0  0  0  0  0  0  0  0  0  0
    6.6874   -1.6229   -0.6518 H   0  0  0  0  0  0  0  0  0  0  0  0
    3.9807   -1.3274    0.4255 H   0  0  0  0  0  0  0  0  0  0  0  0
    3.8563   -1.4941   -1.3669 H   0  0  0  0  0  0  0  0  0  0  0  0
    2.8834   -3.6072    0.8810 H   0  0  0  0  0  0  0  0  0  0  0  0
    2.5891   -3.5977   -0.8873 H   0  0  0  0  0  0  0  0  0  0  0  0
    4.0359   -5.8518    0.6815 H   0  0  0  0  0  0  0  0  0  0  0  0
    2.4020   -5.9077   -0.0583 H   0  0  0  0  0  0  0  0  0  0  0  0
    5.6269   -5.8072   -2.5385 H   0  0  0  0  0  0  0  0  0  0  0  0
    5.9211   -5.7926   -0.7684 H   0  0  0  0  0  0  0  0  0  0  0  0
    4.6915   -3.5304   -2.5019 H   0  0  0  0  0  0  0  0  0  0  0  0
    6.3244   -3.5054   -1.7643 H   0  0  0  0  0  0  0  0  0  0  0  0
    0.6700    1.0647   -0.4538 H   0  0  0  0  0  0  0  0  0  0  0  0
   -1.0902    3.3865   -1.1385 H   0  0  0  0  0  0  0  0  0  0  0  0
   -1.1076    2.1297    1.7011 H   0  0  0  0  0  0  0  0  0  0  0  0
   -0.6816    3.8289    1.3091 H   0  0  0  0  0  0  0  0  0  0  0  0
   -3.0449    3.6482    2.1303 H   0  0  0  0  0  0  0  0  0  0  0  0
   -2.9817    4.2519    0.4414 H   0  0  0  0  0  0  0  0  0  0  0  0
   -3.5502    1.3596    1.3387 H   0  0  0  0  0  0  0  0  0  0  0  0
   -3.5491    2.6025   -1.5090 H   0  0  0  0  0  0  0  0  0  0  0  0
   -3.9462    0.8949   -1.1275 H   0  0  0  0  0  0  0  0  0  0  0  0
   -1.5990    1.0890   -1.9331 H   0  0  0  0  0  0  0  0  0  0  0  0
   -1.6699    0.4857   -0.2429 H   0  0  0  0  0  0  0  0  0  0  0  0
   -5.2608    2.9638    1.7333 H   0  0  0  0  0  0  0  0  0  0  0  0
   -6.1035    1.4459   -0.6941 H   0  0  0  0  0  0  0  0  0  0  0  0
   -5.9169    0.6857    2.3008 H   0  0  0  0  0  0  0  0  0  0  0  0
   -7.1708   -0.0410    1.2157 H   0  0  0  0  0  0  0  0  0  0  0  0
   -4.4343   -2.3520    1.0310 H   0  0  0  0  0  0  0  0  0  0  0  0
   -4.8807   -1.4576    2.5385 H   0  0  0  0  0  0  0  0  0  0  0  0
   -6.1804   -2.1861    1.4748 H   0  0  0  0  0  0  0  0  0  0  0  0
   -8.3746    1.8357    0.2623 H   0  0  0  0  0  0  0  0  0  0  0  0
   -7.5355    3.3958   -0.0123 H   0  0  0  0  0  0  0  0  0  0  0  0
   -7.6601    2.7288    1.6546 H   0  0  0  0  0  0  0  0  0  0  0  0
  1  2  1  0      
  1  6  2  0      
  1 37  1  0      
  2  3  2  0      
  2 38  1  0      
  3  4  1  0      
  3 39  1  0      
  4  5  2  0      
  4 13  1  0      
  5  6  1  0      
  6  7  1  0      
  7  8  2  0      
 12  7  1  0      
  8  9  1  0      
  8 40  1  0      
  9 10  2  0      
  9 21  1  0      
 10 11  1  0      
 12 11  2  0      
 11 41  1  0      
 12 34  1  0      
 13 14  1  0      
 13 42  1  0      
 14 15  1  0      
 14 43  1  0      
 14 44  1  0      
 16 15  1  0      
 15 20  1  0      
 15 35  1  0      
 17 16  1  0      
 16 45  1  0      
 16 46  1  0      
 17 18  1  0      
 17 47  1  0      
 17 48  1  0      
 19 18  1  0      
 20 19  1  0      
 19 49  1  0      
 19 50  1  0      
 20 51  1  0      
 20 52  1  0      
 22 21  1  0      
 21 53  1  0      
 22 23  1  0      
 22 27  1  0      
 22 54  1  0      
 23 24  1  0      
 23 55  1  0      
 23 56  1  0      
 24 25  1  0      
 24 57  1  0      
 24 58  1  0      
 25 26  1  0      
 25 28  1  0      
 25 59  1  0      
 26 27  1  0      
 26 60  1  0      
 26 61  1  0      
 27 62  1  0      
 27 63  1  0      
 28 29  1  0      
 28 64  1  0      
 29 30  1  0      
 29 33  1  0      
 29 65  1  0      
 30 31  1  0      
 30 66  1  0      
 30 67  1  0      
 31 32  1  0      
 32 68  1  0      
 32 69  1  0      
 32 70  1  0      
 33 71  1  0      
 33 72  1  0      
 33 73  1  0      
 35 36  3  0      
M  END
