
  Chem3D Core 15.003241614373D

 70 74  0  0  0  0  0  0  0  0999 V2000
   -1.8272    2.9870    0.5266 C   0  0  0  0  0  0  0  0  0  0  0  0
   -2.8976    1.8952    0.6235 C   0  0  0  0  0  0  0  0  0  0  0  0
   -0.9460    2.9270   -0.2972 O   0  0  0  0  0  0  0  0  0  0  0  0
   -1.8942    4.0330    1.4260 N   0  0  0  0  0  0  0  0  0  0  0  0
   -0.8210    5.0303    1.4902 C   0  0  0  0  0  0  0  0  0  0  0  0
    0.3359    4.4716    2.2843 C   0  0  0  0  0  0  0  0  0  0  0  0
    0.7204    5.0651    3.3306 N   0  0  0  0  0  0  0  0  0  0  0  0
    1.6605    4.5558    4.0091 C   0  0  0  0  0  0  0  0  0  0  0  0
    2.2921    3.4077    3.6994 C   0  0  0  0  0  0  0  0  0  0  0  0
    1.9112    2.7215    2.5904 C   0  0  0  0  0  0  0  0  0  0  0  0
    0.9141    3.3217    1.9001 N   0  0  0  0  0  0  0  0  0  0  0  0
    3.3958    2.8705    4.5832 C   0  0  0  0  0  0  0  0  0  0  0  0
    2.0411    5.3222    5.2505 C   0  0  0  0  0  0  0  0  0  0  0  0
    2.8073    4.4219    6.2150 C   0  0  0  0  0  0  0  0  0  0  0  0
    3.8684    3.8110    5.5294 O   0  0  0  0  0  0  0  0  0  0  0  0
    2.3752    1.6742    2.2168 O   0  0  0  0  0  0  0  0  0  0  0  0
   -2.4103    0.6333    0.0685 N   0  0  0  0  0  0  0  0  0  0  0  0
   -1.4012    0.0347    0.9388 C   0  0  0  0  0  0  0  0  0  0  0  0
   -0.7835   -1.2253    0.3114 C   0  0  0  0  0  0  0  0  0  0  0  0
   -1.8818   -2.2341   -0.0556 C   0  0  0  0  0  0  0  0  0  0  0  0
   -3.0159   -1.5826   -0.8607 C   0  0  0  0  0  0  0  0  0  0  0  0
   -3.5061   -0.2974   -0.1713 C   0  0  0  0  0  0  0  0  0  0  0  0
   -1.3864   -3.5897   -0.5899 C   0  0  0  0  0  0  0  0  0  0  0  0
   -0.7192   -3.7501   -1.7744 C   0  0  0  0  0  0  0  0  0  0  0  0
   -0.3115   -4.9743   -2.1652 C   0  0  0  0  0  0  0  0  0  0  0  0
    0.3458   -5.1633   -3.3199 C   0  0  0  0  0  0  0  0  0  0  0  0
    0.6409   -4.1581   -4.1641 C   0  0  0  0  0  0  0  0  0  0  0  0
    0.2323   -2.9379   -3.7677 C   0  0  0  0  0  0  0  0  0  0  0  0
   -0.4266   -2.7403   -2.6138 C   0  0  0  0  0  0  0  0  0  0  0  0
   -1.6340   -4.5403    0.1276 O   0  0  0  0  0  0  0  0  0  0  0  0
    1.3208   -4.4392   -5.3249 O   0  0  0  0  0  0  0  0  0  0  0  0
    1.6688   -3.3751   -6.1801 C   0  0  0  0  0  0  0  0  0  0  0  0
   -2.9668    4.2420    2.4010 C   0  0  0  0  0  0  0  0  0  0  0  0
   -2.4513    4.0902    3.8295 C   0  0  0  0  0  0  0  0  0  0  0  0
   -3.2394    3.2172    4.7779 C   0  0  0  0  0  0  0  0  0  0  0  0
   -1.9156    2.7383    4.2425 C   0  0  0  0  0  0  0  0  0  0  0  0
   -3.2364    1.7066    1.6650 H   0  0  0  0  0  0  0  0  0  0  0  0
   -3.7640    2.2776    0.0330 H   0  0  0  0  0  0  0  0  0  0  0  0
   -0.4723    5.3177    0.4725 H   0  0  0  0  0  0  0  0  0  0  0  0
   -1.1820    5.9799    1.9470 H   0  0  0  0  0  0  0  0  0  0  0  0
    0.5562    2.9010    1.0593 H   0  0  0  0  0  0  0  0  0  0  0  0
    3.0362    1.9639    5.1221 H   0  0  0  0  0  0  0  0  0  0  0  0
    4.2752    2.5801    3.9631 H   0  0  0  0  0  0  0  0  0  0  0  0
    1.1343    5.7250    5.7610 H   0  0  0  0  0  0  0  0  0  0  0  0
    2.6788    6.1865    4.9470 H   0  0  0  0  0  0  0  0  0  0  0  0
    3.2392    5.0253    7.0470 H   0  0  0  0  0  0  0  0  0  0  0  0
    2.1525    3.6405    6.6646 H   0  0  0  0  0  0  0  0  0  0  0  0
   -0.5752    0.7557    1.1469 H   0  0  0  0  0  0  0  0  0  0  0  0
   -1.8429   -0.2280    1.9297 H   0  0  0  0  0  0  0  0  0  0  0  0
   -0.1890   -0.9083   -0.5725 H   0  0  0  0  0  0  0  0  0  0  0  0
   -0.0626   -1.6934    1.0238 H   0  0  0  0  0  0  0  0  0  0  0  0
   -2.3628   -2.4676    0.9326 H   0  0  0  0  0  0  0  0  0  0  0  0
   -2.6921   -1.3182   -1.8910 H   0  0  0  0  0  0  0  0  0  0  0  0
   -3.8622   -2.3023   -0.9717 H   0  0  0  0  0  0  0  0  0  0  0  0
   -4.2752    0.1733   -0.8306 H   0  0  0  0  0  0  0  0  0  0  0  0
   -4.0172   -0.5560    0.7866 H   0  0  0  0  0  0  0  0  0  0  0  0
   -0.4947   -5.8768   -1.5583 H   0  0  0  0  0  0  0  0  0  0  0  0
    0.6596   -6.1865   -3.5918 H   0  0  0  0  0  0  0  0  0  0  0  0
    0.4290   -2.0508   -4.3912 H   0  0  0  0  0  0  0  0  0  0  0  0
   -0.7099   -1.7014   -2.4054 H   0  0  0  0  0  0  0  0  0  0  0  0
    2.2213   -3.8023   -7.0470 H   0  0  0  0  0  0  0  0  0  0  0  0
    0.7536   -2.8731   -6.5660 H   0  0  0  0  0  0  0  0  0  0  0  0
    2.3432   -2.6619   -5.6555 H   0  0  0  0  0  0  0  0  0  0  0  0
   -3.3789    5.2717    2.2846 H   0  0  0  0  0  0  0  0  0  0  0  0
   -3.8533    3.6041    2.2127 H   0  0  0  0  0  0  0  0  0  0  0  0
   -1.9295    4.9714    4.2221 H   0  0  0  0  0  0  0  0  0  0  0  0
   -3.2803    3.5281    5.8207 H   0  0  0  0  0  0  0  0  0  0  0  0
   -4.1371    2.7242    4.4100 H   0  0  0  0  0  0  0  0  0  0  0  0
   -1.9207    1.9323    3.5138 H   0  0  0  0  0  0  0  0  0  0  0  0
   -1.0653    2.7289    4.9233 H   0  0  0  0  0  0  0  0  0  0  0  0
  1  2  1  0      
  1  3  2  0      
  1  4  1  0      
  2 17  1  0      
  2 37  1  0      
  2 38  1  0      
  4  5  1  0      
  4 33  1  0      
  5  6  1  0      
  5 39  1  0      
  5 40  1  0      
  6  7  2  0      
 11  6  1  0      
  8  7  1  0      
  8  9  2  0      
 13  8  1  0      
  9 10  1  0      
  9 12  1  0      
 10 11  1  0      
 10 16  2  0      
 11 41  1  0      
 15 12  1  0      
 12 42  1  0      
 12 43  1  0      
 14 13  1  0      
 13 44  1  0      
 13 45  1  0      
 15 14  1  0      
 14 46  1  0      
 14 47  1  0      
 17 18  1  0      
 17 22  1  0      
 18 19  1  0      
 18 48  1  0      
 18 49  1  0      
 19 20  1  0      
 19 50  1  0      
 19 51  1  0      
 20 21  1  0      
 20 23  1  0      
 20 52  1  0      
 21 22  1  0      
 21 53  1  0      
 21 54  1  0      
 22 55  1  0      
 22 56  1  0      
 23 24  1  0      
 23 30  2  0      
 24 25  1  0      
 24 29  2  0      
 25 26  2  0      
 25 57  1  0      
 26 27  1  0      
 26 58  1  0      
 27 28  2  0      
 27 31  1  0      
 28 29  1  0      
 28 59  1  0      
 29 60  1  0      
 31 32  1  0      
 32 61  1  0      
 32 62  1  0      
 32 63  1  0      
 33 34  1  0      
 33 64  1  0      
 33 65  1  0      
 34 35  1  0      
 34 36  1  0      
 34 66  1  0      
 35 36  1  0      
 35 67  1  0      
 35 68  1  0      
 36 69  1  0      
 36 70  1  0      
M  END
