
  Chem3D Core 15.001271611443D

 57 61  0  0  0  0  0  0  0  0999 V2000
    1.0390    2.1811   -2.4602 O   0  0  0  0  0  0  0  0  0  0  0  0
    0.0027    2.6290   -2.0291 C   0  0  0  0  0  0  0  0  0  0  0  0
    0.0928    3.8589   -1.4518 N   0  0  0  0  0  0  0  0  0  0  0  0
   -0.5465    4.5106   -0.4586 C   0  0  0  0  0  0  0  0  0  0  0  0
   -0.2353    5.8093   -0.3028 C   0  0  0  0  0  0  0  0  0  0  0  0
   -0.8255    6.5432    0.6517 C   0  0  0  0  0  0  0  0  0  0  0  0
   -1.7171    5.9785    1.4792 C   0  0  0  0  0  0  0  0  0  0  0  0
   -2.0005    4.6670    1.3911 C   0  0  0  0  0  0  0  0  0  0  0  0
   -3.0252    4.0232    2.2994 C   0  0  0  0  0  0  0  0  0  0  0  0
   -3.8837    4.8928    2.8084 F   0  0  0  0  0  0  0  0  0  0  0  0
   -3.7240    3.0876    1.6743 F   0  0  0  0  0  0  0  0  0  0  0  0
   -2.4060    3.4378    3.3131 F   0  0  0  0  0  0  0  0  0  0  0  0
   -1.4141    3.9583    0.4082 C   0  0  0  0  0  0  0  0  0  0  0  0
   -1.1570    1.9094   -2.0254 C   0  0  0  0  0  0  0  0  0  0  0  0
   -2.3551    2.5165   -1.9950 C   0  0  0  0  0  0  0  0  0  0  0  0
   -3.4809    1.7904   -2.0025 C   0  0  0  0  0  0  0  0  0  0  0  0
   -3.4558    0.4471   -2.0575 C   0  0  0  0  0  0  0  0  0  0  0  0
   -4.7785   -0.2965   -2.0633 C   0  0  0  0  0  0  0  0  0  0  0  0
   -2.2611   -0.1843   -2.1172 C   0  0  0  0  0  0  0  0  0  0  0  0
   -2.2770   -1.4580   -2.1790 N   0  0  0  0  0  0  0  0  0  0  0  0
   -1.4132   -2.3909   -2.2400 C   0  0  0  0  0  0  0  0  0  0  0  0
   -1.9055   -3.6367   -2.2989 C   0  0  0  0  0  0  0  0  0  0  0  0
   -1.0820   -4.6888   -2.3662 C   0  0  0  0  0  0  0  0  0  0  0  0
   -1.8611   -5.6919   -2.4085 N   0  0  0  0  0  0  0  0  0  0  0  0
   -1.2815   -7.0453   -2.4896 C   0  0  0  0  0  0  0  0  0  0  0  0
   -3.0672   -5.4203   -2.3771 N   0  0  0  0  0  0  0  0  0  0  0  0
   -3.1410   -4.1579   -2.3096 C   0  0  0  0  0  0  0  0  0  0  0  0
    0.1657   -4.5086   -2.3728 N   0  0  0  0  0  0  0  0  0  0  0  0
    0.6254   -3.3244   -2.3146 C   0  0  0  0  0  0  0  0  0  0  0  0
    1.9697   -3.1410   -2.3179 C   0  0  0  0  0  0  0  0  0  0  0  0
    2.8383   -4.1724   -2.3830 C   0  0  0  0  0  0  0  0  0  0  0  0
    4.1598   -3.9407   -2.3817 C   0  0  0  0  0  0  0  0  0  0  0  0
    4.5806   -2.6704   -2.3140 C   0  0  0  0  0  0  0  0  0  0  0  0
    3.7904   -1.6860   -2.2519 N   0  0  0  0  0  0  0  0  0  0  0  0
    2.5453   -1.9199   -2.2550 C   0  0  0  0  0  0  0  0  0  0  0  0
   -0.1467   -2.3136   -2.2517 N   0  0  0  0  0  0  0  0  0  0  0  0
   -1.1406    0.5648   -2.1086 C   0  0  0  0  0  0  0  0  0  0  0  0
    0.8444    4.4270   -1.8122 H   0  0  0  0  0  0  0  0  0  0  0  0
    0.4939    6.2944   -0.9742 H   0  0  0  0  0  0  0  0  0  0  0  0
   -0.5820    7.6144    0.7523 H   0  0  0  0  0  0  0  0  0  0  0  0
   -2.1981    6.6042    2.2485 H   0  0  0  0  0  0  0  0  0  0  0  0
   -1.6392    2.8829    0.3545 H   0  0  0  0  0  0  0  0  0  0  0  0
   -2.4551    3.6144   -1.9966 H   0  0  0  0  0  0  0  0  0  0  0  0
   -4.4456    2.3248   -1.9784 H   0  0  0  0  0  0  0  0  0  0  0  0
   -5.6592    0.3807   -2.0044 H   0  0  0  0  0  0  0  0  0  0  0  0
   -4.8964   -0.8855   -3.0014 H   0  0  0  0  0  0  0  0  0  0  0  0
   -4.8505   -0.9804   -1.1868 H   0  0  0  0  0  0  0  0  0  0  0  0
   -3.2482   -1.8525   -2.1811 H   0  0  0  0  0  0  0  0  0  0  0  0
   -1.7702   -7.6144   -3.3131 H   0  0  0  0  0  0  0  0  0  0  0  0
   -0.1866   -7.0476   -2.6877 H   0  0  0  0  0  0  0  0  0  0  0  0
   -1.4630   -7.5880   -1.5340 H   0  0  0  0  0  0  0  0  0  0  0  0
   -4.1029   -3.6319   -2.2687 H   0  0  0  0  0  0  0  0  0  0  0  0
    2.5149   -5.2247   -2.4385 H   0  0  0  0  0  0  0  0  0  0  0  0
    4.8831   -4.7709   -2.4343 H   0  0  0  0  0  0  0  0  0  0  0  0
    5.6592   -2.4400   -2.3099 H   0  0  0  0  0  0  0  0  0  0  0  0
    1.9461   -0.9958   -2.1977 H   0  0  0  0  0  0  0  0  0  0  0  0
   -0.1619    0.0723   -2.1526 H   0  0  0  0  0  0  0  0  0  0  0  0
  1  2  2  0      
  2  3  1  0      
  2 14  1  0      
  3  4  1  0      
  3 38  1  0      
  4  5  1  0      
  4 13  2  0      
  5  6  2  0      
  5 39  1  0      
  6  7  1  0      
  6 40  1  0      
  7  8  2  0      
  7 41  1  0      
  8  9  1  0      
  8 13  1  0      
  9 10  1  0      
  9 11  1  0      
  9 12  1  0      
 13 42  1  0      
 14 15  1  0      
 14 37  2  0      
 15 16  2  0      
 15 43  1  0      
 16 17  1  0      
 16 44  1  0      
 17 18  1  0      
 17 19  2  0      
 18 45  1  0      
 18 46  1  0      
 18 47  1  0      
 19 20  1  0      
 19 37  1  0      
 20 21  1  0      
 20 48  1  0      
 22 21  1  0      
 21 36  2  0      
 22 23  2  0      
 27 22  1  0      
 24 23  1  0      
 28 23  1  0      
 24 25  1  0      
 24 26  1  0      
 25 49  1  0      
 25 50  1  0      
 25 51  1  0      
 26 27  2  0      
 27 52  1  0      
 29 28  2  0      
 29 30  1  0      
 36 29  1  0      
 30 31  1  0      
 30 35  2  0      
 31 32  2  0      
 31 53  1  0      
 32 33  1  0      
 32 54  1  0      
 33 34  2  0      
 33 55  1  0      
 34 35  1  0      
 35 56  1  0      
 37 57  1  0      
M  END
