
  Chem3D Core 15.010021516253D

140142  0  0  0  0  0  0  0  0999 V2000
    6.9924   -1.7478   -2.4840 O   0  0  0  0  0  0  0  0  0  0  0  0
    6.8492   -1.7514   -4.7080 O   0  0  0  0  0  0  0  0  0  0  0  0
    8.3175   -4.0287   -1.4019 O   0  0  0  0  0  0  0  0  0  0  0  0
    7.8982    1.6270   -2.7107 O   0  0  0  0  0  0  0  0  0  0  0  0
   11.6727   -1.9235   -3.2535 O   0  0  0  0  0  0  0  0  0  0  0  0
    9.9703   -1.4410   -4.6617 O   0  0  0  0  0  0  0  0  0  0  0  0
    6.7406    3.4961   -3.3820 O   0  0  0  0  0  0  0  0  0  0  0  0
    4.5421   -0.9893   -3.3554 O   0  0  0  0  0  0  0  0  0  0  0  0
   10.3020    2.7422   -3.4930 O   0  0  0  0  0  0  0  0  0  0  0  0
    2.7313   -2.2996   -4.6522 O   0  0  0  0  0  0  0  0  0  0  0  0
    7.5365    4.6456   -6.0470 O   0  0  0  0  0  0  0  0  0  0  0  0
   -0.2282   -0.5303   -1.4338 O   0  0  0  0  0  0  0  0  0  0  0  0
   -8.8707   -1.3883    0.2233 O   0  0  0  0  0  0  0  0  0  0  0  0
   -2.5519   -0.5049   -0.3612 O   0  0  0  0  0  0  0  0  0  0  0  0
   -9.4671   -0.2144    3.9458 O   0  0  0  0  0  0  0  0  0  0  0  0
   -4.9965   -0.4053    0.5620 O   0  0  0  0  0  0  0  0  0  0  0  0
   -7.4959    0.2542    1.0614 O   0  0  0  0  0  0  0  0  0  0  0  0
    8.8091    1.2736   -5.3302 N   0  0  0  0  0  0  0  0  0  0  0  0
    8.2451   -1.1319   -2.4199 C   0  0  0  0  0  0  0  0  0  0  0  0
    9.4014   -2.1446   -2.4345 C   0  0  0  0  0  0  0  0  0  0  0  0
    6.8144   -2.6072   -3.5835 C   0  0  0  0  0  0  0  0  0  0  0  0
    8.9222   -3.5863   -2.5965 C   0  0  0  0  0  0  0  0  0  0  0  0
    7.9071   -3.6624   -3.7257 C   0  0  0  0  0  0  0  0  0  0  0  0
    8.3042   -0.1693   -1.2212 C   0  0  0  0  0  0  0  0  0  0  0  0
   10.4842   -1.8208   -3.4682 C   0  0  0  0  0  0  0  0  0  0  0  0
    5.4221   -3.2299   -3.5143 C   0  0  0  0  0  0  0  0  0  0  0  0
    7.5958    1.1883   -1.4043 C   0  0  0  0  0  0  0  0  0  0  0  0
    4.3422   -2.3172   -2.9297 C   0  0  0  0  0  0  0  0  0  0  0  0
    7.9895    3.0117   -2.9399 C   0  0  0  0  0  0  0  0  0  0  0  0
    6.1096    1.2624   -1.1265 C   0  0  0  0  0  0  0  0  0  0  0  0
    9.0876    3.2974   -3.9416 C   0  0  0  0  0  0  0  0  0  0  0  0
    2.9328   -2.7323   -3.3272 C   0  0  0  0  0  0  0  0  0  0  0  0
    8.7673    2.7457   -5.3235 C   0  0  0  0  0  0  0  0  0  0  0  0
    7.4004    3.2753   -5.7404 C   0  0  0  0  0  0  0  0  0  0  0  0
    6.3278    3.1160   -4.6696 C   0  0  0  0  0  0  0  0  0  0  0  0
    5.3279    0.3180   -0.5784 C   0  0  0  0  0  0  0  0  0  0  0  0
    1.8874   -2.1015   -2.4102 C   0  0  0  0  0  0  0  0  0  0  0  0
    5.6203    1.7595   -4.6805 C   0  0  0  0  0  0  0  0  0  0  0  0
    4.0359    0.5546   -0.2853 C   0  0  0  0  0  0  0  0  0  0  0  0
    0.4286   -2.3573   -2.8243 C   0  0  0  0  0  0  0  0  0  0  0  0
   -0.5480   -1.8663   -1.7521 C   0  0  0  0  0  0  0  0  0  0  0  0
    3.2338   -0.3469    0.3080 C   0  0  0  0  0  0  0  0  0  0  0  0
   -2.0135   -1.9413   -2.1887 C   0  0  0  0  0  0  0  0  0  0  0  0
    1.9681   -0.0712    0.6755 C   0  0  0  0  0  0  0  0  0  0  0  0
   -2.9918   -1.6550   -1.0435 C   0  0  0  0  0  0  0  0  0  0  0  0
   -8.9197   -2.0806    2.5333 C   0  0  0  0  0  0  0  0  0  0  0  0
   -4.4272   -1.4379   -1.5288 C   0  0  0  0  0  0  0  0  0  0  0  0
   -9.3568   -1.6217    3.9383 C   0  0  0  0  0  0  0  0  0  0  0  0
   -9.6719   -1.3841    1.3744 C   0  0  0  0  0  0  0  0  0  0  0  0
   -5.4613   -1.3228   -0.4018 C   0  0  0  0  0  0  0  0  0  0  0  0
    1.1754   -0.9786    1.2728 C   0  0  0  0  0  0  0  0  0  0  0  0
   -8.4221   -2.0062    5.1037 C   0  0  0  0  0  0  0  0  0  0  0  0
   -7.7747   -0.5749    0.2237 C   0  0  0  0  0  0  0  0  0  0  0  0
   -6.8330   -0.8838   -0.9278 C   0  0  0  0  0  0  0  0  0  0  0  0
   -6.9671   -2.0597    4.6899 C   0  0  0  0  0  0  0  0  0  0  0  0
   -8.9215   -3.6113    2.3765 C   0  0  0  0  0  0  0  0  0  0  0  0
   -0.0766   -0.7217    1.6939 C   0  0  0  0  0  0  0  0  0  0  0  0
  -11.0219   -2.0179    1.0361 C   0  0  0  0  0  0  0  0  0  0  0  0
   -8.8607   -3.3015    5.8111 C   0  0  0  0  0  0  0  0  0  0  0  0
   -6.2475   -0.9877    4.3128 C   0  0  0  0  0  0  0  0  0  0  0  0
   -0.8327   -1.6723    2.2685 C   0  0  0  0  0  0  0  0  0  0  0  0
   -4.9771   -1.0917    3.8851 C   0  0  0  0  0  0  0  0  0  0  0  0
   -2.2431   -1.5315    2.7903 C   0  0  0  0  0  0  0  0  0  0  0  0
   -4.2278   -0.0456    3.4971 C   0  0  0  0  0  0  0  0  0  0  0  0
   -2.7905   -0.1148    3.0194 C   0  0  0  0  0  0  0  0  0  0  0  0
    8.3368   -0.4948   -3.3219 H   0  0  0  0  0  0  0  0  0  0  0  0
    6.2075   -1.0511   -4.5850 H   0  0  0  0  0  0  0  0  0  0  0  0
    8.4010   -4.9819   -1.3262 H   0  0  0  0  0  0  0  0  0  0  0  0
    9.0008   -1.3935   -4.6709 H   0  0  0  0  0  0  0  0  0  0  0  0
    5.0687   -0.5169   -2.7019 H   0  0  0  0  0  0  0  0  0  0  0  0
   11.0134    3.0465   -4.0605 H   0  0  0  0  0  0  0  0  0  0  0  0
    3.0188   -1.3818   -4.6957 H   0  0  0  0  0  0  0  0  0  0  0  0
    6.7126    4.9819   -6.4065 H   0  0  0  0  0  0  0  0  0  0  0  0
   -0.6911   -0.2696   -0.6336 H   0  0  0  0  0  0  0  0  0  0  0  0
   -3.2137   -0.1868    0.2480 H   0  0  0  0  0  0  0  0  0  0  0  0
   -9.6267    0.1011    4.8374 H   0  0  0  0  0  0  0  0  0  0  0  0
   -5.6549   -0.1793    1.2250 H   0  0  0  0  0  0  0  0  0  0  0  0
    8.9113    0.9128   -6.2945 H   0  0  0  0  0  0  0  0  0  0  0  0
    9.6489    0.9410   -4.8245 H   0  0  0  0  0  0  0  0  0  0  0  0
    9.9277   -2.1070   -1.4482 H   0  0  0  0  0  0  0  0  0  0  0  0
    9.7806   -4.2747   -2.7778 H   0  0  0  0  0  0  0  0  0  0  0  0
    8.4347   -3.5434   -4.7003 H   0  0  0  0  0  0  0  0  0  0  0  0
    7.4836   -4.6923   -3.7630 H   0  0  0  0  0  0  0  0  0  0  0  0
    9.3866    0.0851   -1.0865 H   0  0  0  0  0  0  0  0  0  0  0  0
    8.0082   -0.6792   -0.2775 H   0  0  0  0  0  0  0  0  0  0  0  0
    5.1348   -3.5636   -4.5389 H   0  0  0  0  0  0  0  0  0  0  0  0
    5.4478   -4.1470   -2.8782 H   0  0  0  0  0  0  0  0  0  0  0  0
    8.0657    1.8797   -0.6620 H   0  0  0  0  0  0  0  0  0  0  0  0
    4.4401   -2.3107   -1.8193 H   0  0  0  0  0  0  0  0  0  0  0  0
    8.2362    3.5433   -1.9926 H   0  0  0  0  0  0  0  0  0  0  0  0
    5.6567    2.2461   -1.3393 H   0  0  0  0  0  0  0  0  0  0  0  0
    9.2540    4.3992   -4.0033 H   0  0  0  0  0  0  0  0  0  0  0  0
    2.8218   -3.8411   -3.3099 H   0  0  0  0  0  0  0  0  0  0  0  0
    9.5493    3.0832   -6.0468 H   0  0  0  0  0  0  0  0  0  0  0  0
    7.0741    2.7875   -6.6885 H   0  0  0  0  0  0  0  0  0  0  0  0
    5.5105    3.8416   -4.9249 H   0  0  0  0  0  0  0  0  0  0  0  0
    5.7625   -0.6627   -0.3332 H   0  0  0  0  0  0  0  0  0  0  0  0
    2.0400   -2.5026   -1.3796 H   0  0  0  0  0  0  0  0  0  0  0  0
    2.0716   -1.0021   -2.3735 H   0  0  0  0  0  0  0  0  0  0  0  0
    5.0901    1.5910   -5.6458 H   0  0  0  0  0  0  0  0  0  0  0  0
    6.3164    0.9062   -4.5589 H   0  0  0  0  0  0  0  0  0  0  0  0
    4.8568    1.6959   -3.8719 H   0  0  0  0  0  0  0  0  0  0  0  0
    3.6169    1.5512   -0.5103 H   0  0  0  0  0  0  0  0  0  0  0  0
    0.2149   -1.8346   -3.7860 H   0  0  0  0  0  0  0  0  0  0  0  0
    0.2721   -3.4490   -2.9923 H   0  0  0  0  0  0  0  0  0  0  0  0
   -0.4042   -2.4652   -0.8225 H   0  0  0  0  0  0  0  0  0  0  0  0
    3.6426   -1.3499    0.5219 H   0  0  0  0  0  0  0  0  0  0  0  0
   -2.2298   -2.9561   -2.5993 H   0  0  0  0  0  0  0  0  0  0  0  0
   -2.1784   -1.2114   -3.0160 H   0  0  0  0  0  0  0  0  0  0  0  0
    1.5661    0.9403    0.4921 H   0  0  0  0  0  0  0  0  0  0  0  0
   -2.9658   -2.4966   -0.3126 H   0  0  0  0  0  0  0  0  0  0  0  0
   -7.8510   -1.7767    2.4318 H   0  0  0  0  0  0  0  0  0  0  0  0
   -4.7231   -2.2829   -2.1951 H   0  0  0  0  0  0  0  0  0  0  0  0
   -4.4495   -0.5101   -2.1480 H   0  0  0  0  0  0  0  0  0  0  0  0
  -10.3883   -1.9910    4.1432 H   0  0  0  0  0  0  0  0  0  0  0  0
   -9.8904   -0.3172    1.6164 H   0  0  0  0  0  0  0  0  0  0  0  0
   -5.5629   -2.3010    0.1261 H   0  0  0  0  0  0  0  0  0  0  0  0
    1.5822   -1.9934    1.4300 H   0  0  0  0  0  0  0  0  0  0  0  0
   -8.4930   -1.2117    5.8908 H   0  0  0  0  0  0  0  0  0  0  0  0
   -7.2548   -1.6686   -1.5972 H   0  0  0  0  0  0  0  0  0  0  0  0
   -6.7337    0.0508   -1.5277 H   0  0  0  0  0  0  0  0  0  0  0  0
   -6.5102   -3.0633    4.6567 H   0  0  0  0  0  0  0  0  0  0  0  0
   -8.6796   -3.9138    1.3325 H   0  0  0  0  0  0  0  0  0  0  0  0
   -8.1510   -4.0957    3.0150 H   0  0  0  0  0  0  0  0  0  0  0  0
   -9.9087   -4.0486    2.6468 H   0  0  0  0  0  0  0  0  0  0  0  0
   -0.4922    0.2900    1.5667 H   0  0  0  0  0  0  0  0  0  0  0  0
  -11.6727   -2.0795    1.9378 H   0  0  0  0  0  0  0  0  0  0  0  0
  -11.5655   -1.4154    0.2722 H   0  0  0  0  0  0  0  0  0  0  0  0
  -10.9110   -3.0422    0.6159 H   0  0  0  0  0  0  0  0  0  0  0  0
   -8.2091   -3.5197    6.6885 H   0  0  0  0  0  0  0  0  0  0  0  0
   -9.9042   -3.2189    6.1924 H   0  0  0  0  0  0  0  0  0  0  0  0
   -8.8230   -4.1879    5.1423 H   0  0  0  0  0  0  0  0  0  0  0  0
   -6.7318    0.0021    4.3456 H   0  0  0  0  0  0  0  0  0  0  0  0
   -0.4152   -2.6912    2.3699 H   0  0  0  0  0  0  0  0  0  0  0  0
   -4.5307   -2.0977    3.8559 H   0  0  0  0  0  0  0  0  0  0  0  0
   -2.2567   -2.0657    3.7718 H   0  0  0  0  0  0  0  0  0  0  0  0
   -2.9059   -2.0864    2.0852 H   0  0  0  0  0  0  0  0  0  0  0  0
   -4.6654    0.9682    3.5310 H   0  0  0  0  0  0  0  0  0  0  0  0
   -2.7418    0.4659    2.0700 H   0  0  0  0  0  0  0  0  0  0  0  0
   -2.1519    0.4157    3.7648 H   0  0  0  0  0  0  0  0  0  0  0  0
  1 19  1  0      
  1 21  1  0      
 21  2  1  0      
  2 67  1  0      
 22  3  1  0      
  3 68  1  0      
 27  4  1  0      
 29  4  1  0      
  5 25  2  0      
  6 25  1  0      
  6 69  1  0      
 29  7  1  0      
 35  7  1  0      
 28  8  1  0      
  8 70  1  0      
 31  9  1  0      
  9 71  1  0      
 32 10  1  0      
 10 72  1  0      
 34 11  1  0      
 11 73  1  0      
 41 12  1  0      
 12 74  1  0      
 13 49  1  0      
 13 53  1  0      
 45 14  1  0      
 14 75  1  0      
 48 15  1  0      
 15 76  1  0      
 50 16  1  0      
 16 77  1  0      
 17 53  2  0      
 33 18  1  0      
 18 78  1  0      
 18 79  1  0      
 19 20  1  0      
 19 24  1  0      
 19 66  1  0      
 20 22  1  0      
 20 25  1  0      
 20 80  1  0      
 21 23  1  0      
 21 26  1  0      
 22 23  1  0      
 22 81  1  0      
 23 82  1  0      
 23 83  1  0      
 24 27  1  0      
 24 84  1  0      
 24 85  1  0      
 26 28  1  0      
 26 86  1  0      
 26 87  1  0      
 27 30  1  0      
 27 88  1  0      
 28 32  1  0      
 28 89  1  0      
 29 31  1  0      
 29 90  1  0      
 30 36  2  0      
 30 91  1  0      
 31 33  1  0      
 31 92  1  0      
 32 37  1  0      
 32 93  1  0      
 33 34  1  0      
 33 94  1  0      
 34 35  1  0      
 34 95  1  0      
 35 38  1  0      
 35 96  1  0      
 36 39  1  0      
 36 97  1  0      
 37 40  1  0      
 37 98  1  0      
 37 99  1  0      
 38100  1  0      
 38101  1  0      
 38102  1  0      
 39 42  2  0      
 39103  1  0      
 40 41  1  0      
 40104  1  0      
 40105  1  0      
 41 43  1  0      
 41106  1  0      
 42 44  1  0      
 42107  1  0      
 43 45  1  0      
 43108  1  0      
 43109  1  0      
 44 51  2  0      
 44110  1  0      
 45 47  1  0      
 45111  1  0      
 46 48  1  0      
 46 49  1  0      
 46 56  1  0      
 46112  1  0      
 47 50  1  0      
 47113  1  0      
 47114  1  0      
 48 52  1  0      
 48115  1  0      
 49 58  1  0      
 49116  1  0      
 50 54  1  0      
 50117  1  0      
 51 57  1  0      
 51118  1  0      
 52 55  1  0      
 52 59  1  0      
 52119  1  0      
 53 54  1  0      
 54120  1  0      
 54121  1  0      
 55 60  2  0      
 55122  1  0      
 56123  1  0      
 56124  1  0      
 56125  1  0      
 57 61  2  0      
 57126  1  0      
 58127  1  0      
 58128  1  0      
 58129  1  0      
 59130  1  0      
 59131  1  0      
 59132  1  0      
 60 62  1  0      
 60133  1  0      
 61 63  1  0      
 61134  1  0      
 62 64  2  0      
 62135  1  0      
 63 65  1  0      
 63136  1  0      
 63137  1  0      
 64 65  1  0      
 64138  1  0      
 65139  1  0      
 65140  1  0      
M  END
