
  Chem3D Core 15.003181609473D

 63 65  0  0  0  0  0  0  0  0999 V2000
   -3.5738   -5.1097    1.8882 S   0  0  0  0  0  0  0  0  0  0  0  0
    4.7720    3.0053   -1.4372 F   0  0  0  0  0  0  0  0  0  0  0  0
    3.0630    2.3669   -2.4774 F   0  0  0  0  0  0  0  0  0  0  0  0
    4.1662    1.0152   -1.3196 F   0  0  0  0  0  0  0  0  0  0  0  0
    1.2154    4.2909   -2.7136 F   0  0  0  0  0  0  0  0  0  0  0  0
    2.0213    7.2818    0.2613 O   0  0  0  0  0  0  0  0  0  0  0  0
   -4.7720   -5.2239    1.0619 O   0  0  0  0  0  0  0  0  0  0  0  0
   -3.5468   -5.6549    3.2424 O   0  0  0  0  0  0  0  0  0  0  0  0
    1.9206    5.8005    1.8923 N   0  0  0  0  0  0  0  0  0  0  0  0
    2.1087    3.8029   -0.2224 N   0  0  0  0  0  0  0  0  0  0  0  0
    0.2421    2.7585    2.6071 N   0  0  0  0  0  0  0  0  0  0  0  0
    2.2325    4.5806    2.5893 C   0  0  0  0  0  0  0  0  0  0  0  0
    3.6183    4.0918    2.8902 C   0  0  0  0  0  0  0  0  0  0  0  0
    2.7964    4.7297    3.9801 C   0  0  0  0  0  0  0  0  0  0  0  0
    2.8926    2.5573   -0.1771 C   0  0  0  0  0  0  0  0  0  0  0  0
    2.8334    5.0738   -0.3215 C   0  0  0  0  0  0  0  0  0  0  0  0
    2.2315    6.1455    0.6022 C   0  0  0  0  0  0  0  0  0  0  0  0
    1.9401    1.4097    0.1212 C   0  0  0  0  0  0  0  0  0  0  0  0
    3.7197    2.2406   -1.3619 C   0  0  0  0  0  0  0  0  0  0  0  0
    1.0995    3.5373    2.5964 C   0  0  0  0  0  0  0  0  0  0  0  0
    0.1803   -0.6826    0.6786 C   0  0  0  0  0  0  0  0  0  0  0  0
    2.9390    5.5564   -1.7927 C   0  0  0  0  0  0  0  0  0  0  0  0
   -0.6832   -1.6996    0.9559 C   0  0  0  0  0  0  0  0  0  0  0  0
    2.1570    0.5534    1.1309 C   0  0  0  0  0  0  0  0  0  0  0  0
    0.8374    1.1999   -0.6126 C   0  0  0  0  0  0  0  0  0  0  0  0
    1.3047   -0.4506    1.3930 C   0  0  0  0  0  0  0  0  0  0  0  0
   -0.0050    0.1911   -0.3367 C   0  0  0  0  0  0  0  0  0  0  0  0
    1.6874    5.5353   -2.6709 C   0  0  0  0  0  0  0  0  0  0  0  0
   -2.4452   -3.7687    1.5245 C   0  0  0  0  0  0  0  0  0  0  0  0
   -1.8123   -1.9248    0.2457 C   0  0  0  0  0  0  0  0  0  0  0  0
   -0.4910   -2.5765    1.9680 C   0  0  0  0  0  0  0  0  0  0  0  0
   -2.6719   -2.9221    0.5115 C   0  0  0  0  0  0  0  0  0  0  0  0
   -1.3359   -3.5813    2.2517 C   0  0  0  0  0  0  0  0  0  0  0  0
    2.0547    5.9361   -4.0923 C   0  0  0  0  0  0  0  0  0  0  0  0
    0.5626    6.4259   -2.1812 C   0  0  0  0  0  0  0  0  0  0  0  0
   -2.7319   -6.5678    1.1232 C   0  0  0  0  0  0  0  0  0  0  0  0
    1.4865    6.5777    2.3748 H   0  0  0  0  0  0  0  0  0  0  0  0
    1.4153    3.7268   -1.0044 H   0  0  0  0  0  0  0  0  0  0  0  0
    3.7868    3.0193    2.9709 H   0  0  0  0  0  0  0  0  0  0  0  0
    4.4522    4.6620    2.4852 H   0  0  0  0  0  0  0  0  0  0  0  0
    3.0795    5.7302    4.3038 H   0  0  0  0  0  0  0  0  0  0  0  0
    2.4216    4.0830    4.7720 H   0  0  0  0  0  0  0  0  0  0  0  0
    3.5963    2.6368    0.6857 H   0  0  0  0  0  0  0  0  0  0  0  0
    3.8675    4.9507    0.0840 H   0  0  0  0  0  0  0  0  0  0  0  0
    3.3810    6.5799   -1.8146 H   0  0  0  0  0  0  0  0  0  0  0  0
    3.7034    4.9271   -2.3034 H   0  0  0  0  0  0  0  0  0  0  0  0
    3.0518    0.6767    1.7646 H   0  0  0  0  0  0  0  0  0  0  0  0
    0.6119    1.8675   -1.4606 H   0  0  0  0  0  0  0  0  0  0  0  0
    1.6082   -1.0662    2.2519 H   0  0  0  0  0  0  0  0  0  0  0  0
   -0.8658    0.1434   -1.0191 H   0  0  0  0  0  0  0  0  0  0  0  0
   -2.1172   -1.3038   -0.6089 H   0  0  0  0  0  0  0  0  0  0  0  0
    0.3780   -2.5362    2.6403 H   0  0  0  0  0  0  0  0  0  0  0  0
   -3.5729   -3.0396   -0.1150 H   0  0  0  0  0  0  0  0  0  0  0  0
   -1.1076   -4.2583    3.0930 H   0  0  0  0  0  0  0  0  0  0  0  0
    2.4511    6.9762   -4.1313 H   0  0  0  0  0  0  0  0  0  0  0  0
    1.1736    5.8869   -4.7720 H   0  0  0  0  0  0  0  0  0  0  0  0
    2.8309    5.2618   -4.5211 H   0  0  0  0  0  0  0  0  0  0  0  0
    0.1911    6.1060   -1.1823 H   0  0  0  0  0  0  0  0  0  0  0  0
    0.8781    7.4919   -2.1275 H   0  0  0  0  0  0  0  0  0  0  0  0
   -0.3149    6.3805   -2.8659 H   0  0  0  0  0  0  0  0  0  0  0  0
   -3.3359   -7.4919    1.2700 H   0  0  0  0  0  0  0  0  0  0  0  0
   -2.5934   -6.3921    0.0322 H   0  0  0  0  0  0  0  0  0  0  0  0
   -1.7293   -6.7116    1.5861 H   0  0  0  0  0  0  0  0  0  0  0  0
  1  7  2  0      
  1  8  2  0      
  1 29  1  0      
  1 36  1  0      
  2 19  1  0      
  3 19  1  0      
  4 19  1  0      
  5 28  1  0      
  6 17  2  0      
  9 12  1  0      
  9 17  1  0      
  9 37  1  0      
 10 15  1  0      
 10 16  1  0      
 10 38  1  0      
 11 20  3  0      
 12 13  1  0      
 12 14  1  0      
 12 20  1  0      
 13 14  1  0      
 13 39  1  0      
 13 40  1  0      
 14 41  1  0      
 14 42  1  0      
 15 18  1  0      
 15 19  1  0      
 15 43  1  0      
 16 17  1  0      
 16 22  1  0      
 16 44  1  0      
 18 24  1  0      
 18 25  2  0      
 21 23  1  0      
 26 21  1  0      
 21 27  2  0      
 22 28  1  0      
 22 45  1  0      
 22 46  1  0      
 23 30  1  0      
 23 31  2  0      
 24 26  2  0      
 24 47  1  0      
 27 25  1  0      
 25 48  1  0      
 26 49  1  0      
 27 50  1  0      
 28 34  1  0      
 28 35  1  0      
 32 29  1  0      
 29 33  2  0      
 30 32  2  0      
 30 51  1  0      
 33 31  1  0      
 31 52  1  0      
 32 53  1  0      
 33 54  1  0      
 34 55  1  0      
 34 56  1  0      
 34 57  1  0      
 35 58  1  0      
 35 59  1  0      
 35 60  1  0      
 36 61  1  0      
 36 62  1  0      
 36 63  1  0      
M  END
