
  Chem3D Core 15.008141513093D

 55 59  0  0  0  0  0  0  0  0999 V2000
    3.7725   -2.2352   -3.8734 F   0  0  0  0  0  0  0  0  0  0  0  0
    2.5206   -1.8886   -3.6122 C   0  0  0  0  0  0  0  0  0  0  0  0
    1.5478   -2.5623   -4.2466 C   0  0  0  0  0  0  0  0  0  0  0  0
    0.2562   -2.2915   -4.0148 C   0  0  0  0  0  0  0  0  0  0  0  0
   -0.0849   -1.3363   -3.1350 C   0  0  0  0  0  0  0  0  0  0  0  0
   -1.5393   -0.9897   -2.8820 C   0  0  0  0  0  0  0  0  0  0  0  0
   -2.0353    0.2107   -3.6658 C   0  0  0  0  0  0  0  0  0  0  0  0
   -1.1863    0.7275   -4.4454 N   0  0  0  0  0  0  0  0  0  0  0  0
   -1.5137    1.8025   -5.1940 N   0  0  0  0  0  0  0  0  0  0  0  0
   -2.7401    2.3903   -5.1581 C   0  0  0  0  0  0  0  0  0  0  0  0
   -2.9332    3.3526   -5.8611 O   0  0  0  0  0  0  0  0  0  0  0  0
   -3.6329    1.8085   -4.3102 C   0  0  0  0  0  0  0  0  0  0  0  0
   -4.8759    2.3173   -4.2078 C   0  0  0  0  0  0  0  0  0  0  0  0
   -5.7781    1.7680   -3.3820 C   0  0  0  0  0  0  0  0  0  0  0  0
   -5.4365    0.6996   -2.6506 C   0  0  0  0  0  0  0  0  0  0  0  0
   -4.1991    0.1917   -2.7509 C   0  0  0  0  0  0  0  0  0  0  0  0
   -3.2783    0.7302   -3.5750 C   0  0  0  0  0  0  0  0  0  0  0  0
    0.8989   -0.6689   -2.5059 C   0  0  0  0  0  0  0  0  0  0  0  0
    2.2046   -0.9348   -2.7097 C   0  0  0  0  0  0  0  0  0  0  0  0
    3.1637   -0.2106   -2.0563 C   0  0  0  0  0  0  0  0  0  0  0  0
    4.2595   -0.0488   -2.5459 O   0  0  0  0  0  0  0  0  0  0  0  0
    2.9474    0.2428   -0.7710 N   0  0  0  0  0  0  0  0  0  0  0  0
    3.7669    1.2927   -0.1670 C   0  0  0  0  0  0  0  0  0  0  0  0
    4.6042    0.7268    0.9887 C   0  0  0  0  0  0  0  0  0  0  0  0
    3.6976    0.1272    1.9632 N   0  0  0  0  0  0  0  0  0  0  0  0
    2.8716   -0.9289    1.3843 C   0  0  0  0  0  0  0  0  0  0  0  0
    2.0485   -0.3862    0.2003 C   0  0  0  0  0  0  0  0  0  0  0  0
    3.5910    0.5386    3.2712 C   0  0  0  0  0  0  0  0  0  0  0  0
    2.7084    0.1257    3.9891 O   0  0  0  0  0  0  0  0  0  0  0  0
    4.5681    1.4877    3.8220 C   0  0  0  0  0  0  0  0  0  0  0  0
    5.0815    1.0672    5.1801 C   0  0  0  0  0  0  0  0  0  0  0  0
    5.9306    0.8497    3.9543 C   0  0  0  0  0  0  0  0  0  0  0  0
    1.8129   -3.3526   -4.9692 H   0  0  0  0  0  0  0  0  0  0  0  0
   -0.5221   -2.8527   -4.5574 H   0  0  0  0  0  0  0  0  0  0  0  0
   -2.1747   -1.8715   -3.1314 H   0  0  0  0  0  0  0  0  0  0  0  0
   -1.6621   -0.7962   -1.7903 H   0  0  0  0  0  0  0  0  0  0  0  0
   -0.8483    2.2257   -5.8213 H   0  0  0  0  0  0  0  0  0  0  0  0
   -5.1968    3.1956   -4.7926 H   0  0  0  0  0  0  0  0  0  0  0  0
   -6.7939    2.1904   -3.3037 H   0  0  0  0  0  0  0  0  0  0  0  0
   -6.1730    0.2415   -1.9690 H   0  0  0  0  0  0  0  0  0  0  0  0
   -3.9762   -0.6876   -2.1256 H   0  0  0  0  0  0  0  0  0  0  0  0
    0.5881    0.1528   -1.8397 H   0  0  0  0  0  0  0  0  0  0  0  0
    4.4234    1.7992   -0.9103 H   0  0  0  0  0  0  0  0  0  0  0  0
    3.0932    2.0932    0.2215 H   0  0  0  0  0  0  0  0  0  0  0  0
    5.3165   -0.0439    0.6120 H   0  0  0  0  0  0  0  0  0  0  0  0
    5.2180    1.5477    1.4215 H   0  0  0  0  0  0  0  0  0  0  0  0
    2.1875   -1.3960    2.1280 H   0  0  0  0  0  0  0  0  0  0  0  0
    3.5394   -1.7508    1.0315 H   0  0  0  0  0  0  0  0  0  0  0  0
    1.2991    0.3568    0.5611 H   0  0  0  0  0  0  0  0  0  0  0  0
    1.4986   -1.2612   -0.2147 H   0  0  0  0  0  0  0  0  0  0  0  0
    4.4438    2.5454    3.5782 H   0  0  0  0  0  0  0  0  0  0  0  0
    5.3749    1.8650    5.8611 H   0  0  0  0  0  0  0  0  0  0  0  0
    4.6860    0.1788    5.6690 H   0  0  0  0  0  0  0  0  0  0  0  0
    6.0734   -0.1767    3.6194 H   0  0  0  0  0  0  0  0  0  0  0  0
    6.7939    1.4991    3.8161 H   0  0  0  0  0  0  0  0  0  0  0  0
  1  2  1  0      
  2  3  1  0      
  2 19  2  0      
  3  4  2  0      
  3 33  1  0      
  4  5  1  0      
  4 34  1  0      
  5  6  1  0      
  5 18  2  0      
  6  7  1  0      
  6 35  1  0      
  6 36  1  0      
  7  8  2  0      
  7 17  1  0      
  8  9  1  0      
  9 10  1  0      
  9 37  1  0      
 10 11  2  0      
 10 12  1  0      
 12 13  1  0      
 12 17  2  0      
 13 14  2  0      
 13 38  1  0      
 14 15  1  0      
 14 39  1  0      
 15 16  2  0      
 15 40  1  0      
 16 17  1  0      
 16 41  1  0      
 18 19  1  0      
 18 42  1  0      
 19 20  1  0      
 20 21  2  0      
 20 22  1  0      
 22 23  1  0      
 22 27  1  0      
 23 24  1  0      
 23 43  1  0      
 23 44  1  0      
 24 25  1  0      
 24 45  1  0      
 24 46  1  0      
 25 26  1  0      
 25 28  1  0      
 26 27  1  0      
 26 47  1  0      
 26 48  1  0      
 27 49  1  0      
 27 50  1  0      
 28 29  2  0      
 28 30  1  0      
 30 31  1  0      
 30 32  1  0      
 30 51  1  0      
 31 32  1  0      
 31 52  1  0      
 31 53  1  0      
 32 54  1  0      
 32 55  1  0      
M  END
