
  Chem3D Core 15.003291610493D

 41 44  0  0  0  0  0  0  0  0999 V2000
    0.5238    0.7857   -0.6316 O   0  0  0  0  0  0  0  0  0  0  0  0
   -2.9892   -1.2352    0.9132 N   0  0  0  0  0  0  0  0  0  0  0  0
    3.2180   -0.8049   -0.8959 N   0  0  0  0  0  0  0  0  0  0  0  0
    4.9758   -0.4372    0.1198 N   0  0  0  0  0  0  0  0  0  0  0  0
   -1.2486   -0.3757    0.1706 C   0  0  0  0  0  0  0  0  0  0  0  0
   -1.8148   -1.5417    0.5352 C   0  0  0  0  0  0  0  0  0  0  0  0
   -2.1627    0.5964    0.3546 C   0  0  0  0  0  0  0  0  0  0  0  0
   -3.2673   -0.0003    0.8354 C   0  0  0  0  0  0  0  0  0  0  0  0
    0.0255   -0.2639   -0.2910 C   0  0  0  0  0  0  0  0  0  0  0  0
    0.8613   -1.5499   -0.3609 C   0  0  0  0  0  0  0  0  0  0  0  0
   -1.1303   -2.8732    0.4413 C   0  0  0  0  0  0  0  0  0  0  0  0
   -0.0232   -2.7826   -0.6129 C   0  0  0  0  0  0  0  0  0  0  0  0
   -2.1572    1.9245    0.1640 C   0  0  0  0  0  0  0  0  0  0  0  0
   -4.3756    0.6926    1.1296 C   0  0  0  0  0  0  0  0  0  0  0  0
    2.0230   -1.5150   -1.3808 C   0  0  0  0  0  0  0  0  0  0  0  0
   -3.9503   -2.2279    1.4256 C   0  0  0  0  0  0  0  0  0  0  0  0
   -3.2639    2.6288    0.4575 C   0  0  0  0  0  0  0  0  0  0  0  0
   -4.3633    2.0213    0.9350 C   0  0  0  0  0  0  0  0  0  0  0  0
    4.0652   -1.2963   -0.0888 C   0  0  0  0  0  0  0  0  0  0  0  0
    3.5320    0.3668   -1.2549 C   0  0  0  0  0  0  0  0  0  0  0  0
    4.6694    0.5763   -0.5774 C   0  0  0  0  0  0  0  0  0  0  0  0
    4.1359   -2.6371    0.5853 C   0  0  0  0  0  0  0  0  0  0  0  0
    1.3006   -1.6641    0.6609 H   0  0  0  0  0  0  0  0  0  0  0  0
   -1.8500   -3.6699    0.1412 H   0  0  0  0  0  0  0  0  0  0  0  0
   -0.7111   -3.1313    1.4416 H   0  0  0  0  0  0  0  0  0  0  0  0
   -0.4739   -2.6994   -1.6311 H   0  0  0  0  0  0  0  0  0  0  0  0
    0.5797   -3.7215   -0.5894 H   0  0  0  0  0  0  0  0  0  0  0  0
   -1.2816    2.4644   -0.2237 H   0  0  0  0  0  0  0  0  0  0  0  0
   -5.2812    0.2008    1.5174 H   0  0  0  0  0  0  0  0  0  0  0  0
    1.6585   -1.0828   -2.3416 H   0  0  0  0  0  0  0  0  0  0  0  0
    2.3320   -2.5549   -1.6393 H   0  0  0  0  0  0  0  0  0  0  0  0
   -4.4633   -1.8576    2.3416 H   0  0  0  0  0  0  0  0  0  0  0  0
   -4.7147   -2.4573    0.6484 H   0  0  0  0  0  0  0  0  0  0  0  0
   -3.4596   -3.1801    1.7238 H   0  0  0  0  0  0  0  0  0  0  0  0
   -3.2715    3.7215    0.3042 H   0  0  0  0  0  0  0  0  0  0  0  0
   -5.2620    2.6171    1.1678 H   0  0  0  0  0  0  0  0  0  0  0  0
    2.9753    1.0001   -1.9511 H   0  0  0  0  0  0  0  0  0  0  0  0
    5.2812    1.4874   -0.6044 H   0  0  0  0  0  0  0  0  0  0  0  0
    4.1390   -3.4513   -0.1738 H   0  0  0  0  0  0  0  0  0  0  0  0
    5.0583   -2.7444    1.1994 H   0  0  0  0  0  0  0  0  0  0  0  0
    3.2631   -2.7853    1.2591 H   0  0  0  0  0  0  0  0  0  0  0  0
  1  9  2  0      
  6  2  1  0      
  8  2  1  0      
  2 16  1  0      
  3 15  1  0      
  3 19  1  0      
 20  3  1  0      
 19  4  2  0      
 21  4  1  0      
  6  5  2  0      
  5  7  1  0      
  5  9  1  0      
 11  6  1  0      
  7  8  1  0      
  7 13  2  0      
 14  8  2  0      
 10  9  1  0      
 10 12  1  0      
 10 15  1  0      
 10 23  1  0      
 12 11  1  0      
 11 24  1  0      
 11 25  1  0      
 12 26  1  0      
 12 27  1  0      
 13 17  1  0      
 13 28  1  0      
 18 14  1  0      
 14 29  1  0      
 15 30  1  0      
 15 31  1  0      
 16 32  1  0      
 16 33  1  0      
 16 34  1  0      
 17 18  2  0      
 17 35  1  0      
 18 36  1  0      
 19 22  1  0      
 21 20  2  0      
 20 37  1  0      
 21 38  1  0      
 22 39  1  0      
 22 40  1  0      
 22 41  1  0      
M  END
