
  Chem3D Core 15.001121613303D

 69 71  0  0  0  0  0  0  0  0999 V2000
   -2.9222   -1.8355    2.7763 S   0  0  0  0  0  0  0  0  0  0  0  0
    5.1658    1.4521   -1.8078 O   0  0  0  0  0  0  0  0  0  0  0  0
    3.0796   -0.8984   -3.3278 O   0  0  0  0  0  0  0  0  0  0  0  0
    2.6220    0.6080    1.8141 O   0  0  0  0  0  0  0  0  0  0  0  0
   -0.0107   -3.3521    1.9193 O   0  0  0  0  0  0  0  0  0  0  0  0
   -3.6231    0.3761    0.0950 O   0  0  0  0  0  0  0  0  0  0  0  0
   -0.2556    2.3246    0.8829 O   0  0  0  0  0  0  0  0  0  0  0  0
   -1.3008   -2.3939   -2.2809 O   0  0  0  0  0  0  0  0  0  0  0  0
    2.5547    0.7642   -0.4129 N   0  0  0  0  0  0  0  0  0  0  0  0
    0.4604   -1.2008    1.6001 N   0  0  0  0  0  0  0  0  0  0  0  0
   -1.9866   -1.0711   -0.0946 N   0  0  0  0  0  0  0  0  0  0  0  0
   -5.2155   -1.6432    3.0888 N   0  0  0  0  0  0  0  0  0  0  0  0
    4.2300    1.1033   -3.0592 C   0  0  0  0  0  0  0  0  0  0  0  0
    3.1232    0.1687   -2.7463 C   0  0  0  0  0  0  0  0  0  0  0  0
    4.3370    2.3962   -2.4390 C   0  0  0  0  0  0  0  0  0  0  0  0
    1.9925    0.4793   -1.7422 C   0  0  0  0  0  0  0  0  0  0  0  0
    5.0381    0.8498   -4.3238 C   0  0  0  0  0  0  0  0  0  0  0  0
    1.0542    1.5827   -2.2714 C   0  0  0  0  0  0  0  0  0  0  0  0
    1.9811    0.4899    0.8002 C   0  0  0  0  0  0  0  0  0  0  0  0
    0.5064    0.0648    0.8570 C   0  0  0  0  0  0  0  0  0  0  0  0
   -0.1739    1.0147   -2.9559 C   0  0  0  0  0  0  0  0  0  0  0  0
   -0.2327   -2.3426    1.2968 C   0  0  0  0  0  0  0  0  0  0  0  0
   -1.2660   -2.3277    0.1560 C   0  0  0  0  0  0  0  0  0  0  0  0
   -3.6346   -1.2157    1.6515 C   0  0  0  0  0  0  0  0  0  0  0  0
   -3.0923   -0.6051    0.5612 C   0  0  0  0  0  0  0  0  0  0  0  0
   -0.2748    1.1369    1.6317 C   0  0  0  0  0  0  0  0  0  0  0  0
   -0.0565    0.3186   -4.1009 C   0  0  0  0  0  0  0  0  0  0  0  0
   -1.4056    1.1953   -2.4459 C   0  0  0  0  0  0  0  0  0  0  0  0
   -4.1298   -2.0688    3.5761 C   0  0  0  0  0  0  0  0  0  0  0  0
   -4.9354   -1.1174    1.9761 C   0  0  0  0  0  0  0  0  0  0  0  0
   -0.5799   -2.7903   -1.1390 C   0  0  0  0  0  0  0  0  0  0  0  0
   -1.1332   -0.1939   -4.7160 C   0  0  0  0  0  0  0  0  0  0  0  0
   -2.4879    0.6868   -3.0548 C   0  0  0  0  0  0  0  0  0  0  0  0
   -2.3540   -0.0099   -4.1926 C   0  0  0  0  0  0  0  0  0  0  0  0
   -4.1412   -2.7447    4.9207 C   0  0  0  0  0  0  0  0  0  0  0  0
   -1.0193    3.3514    1.4741 C   0  0  0  0  0  0  0  0  0  0  0  0
   -2.4422   -3.1895   -2.5166 C   0  0  0  0  0  0  0  0  0  0  0  0
    3.4953    1.1518   -0.3470 H   0  0  0  0  0  0  0  0  0  0  0  0
    1.0759   -1.2693    2.4119 H   0  0  0  0  0  0  0  0  0  0  0  0
   -1.7153   -0.5267   -0.9169 H   0  0  0  0  0  0  0  0  0  0  0  0
    3.5878    2.7509   -1.7354 H   0  0  0  0  0  0  0  0  0  0  0  0
    4.9454    3.1673   -2.9094 H   0  0  0  0  0  0  0  0  0  0  0  0
    1.4240   -0.4744   -1.6634 H   0  0  0  0  0  0  0  0  0  0  0  0
    4.3557    0.7072   -5.1922 H   0  0  0  0  0  0  0  0  0  0  0  0
    5.7227    1.6903   -4.5740 H   0  0  0  0  0  0  0  0  0  0  0  0
    5.6597   -0.0660   -4.2002 H   0  0  0  0  0  0  0  0  0  0  0  0
    0.7538    2.2498   -1.4336 H   0  0  0  0  0  0  0  0  0  0  0  0
    1.5760    2.2478   -2.9965 H   0  0  0  0  0  0  0  0  0  0  0  0
    0.0825   -0.0406   -0.1576 H   0  0  0  0  0  0  0  0  0  0  0  0
   -2.0239   -3.1150    0.3909 H   0  0  0  0  0  0  0  0  0  0  0  0
    0.1766    1.3193    2.6331 H   0  0  0  0  0  0  0  0  0  0  0  0
   -1.3276    0.8167    1.7850 H   0  0  0  0  0  0  0  0  0  0  0  0
    0.9374    0.1638   -4.5503 H   0  0  0  0  0  0  0  0  0  0  0  0
   -1.5417    1.7676   -1.5146 H   0  0  0  0  0  0  0  0  0  0  0  0
   -5.7227   -0.6431    1.3722 H   0  0  0  0  0  0  0  0  0  0  0  0
   -0.3881   -3.8865   -1.1560 H   0  0  0  0  0  0  0  0  0  0  0  0
    0.4156   -2.2990   -1.2190 H   0  0  0  0  0  0  0  0  0  0  0  0
   -1.0159   -0.7641   -5.6527 H   0  0  0  0  0  0  0  0  0  0  0  0
   -3.4920    0.8435   -2.6278 H   0  0  0  0  0  0  0  0  0  0  0  0
   -3.2421   -0.4269   -4.6957 H   0  0  0  0  0  0  0  0  0  0  0  0
   -3.7578   -3.7881    4.8450 H   0  0  0  0  0  0  0  0  0  0  0  0
   -3.5107   -2.1895    5.6527 H   0  0  0  0  0  0  0  0  0  0  0  0
   -5.1694   -2.8004    5.3453 H   0  0  0  0  0  0  0  0  0  0  0  0
   -0.9368    4.2538    0.8281 H   0  0  0  0  0  0  0  0  0  0  0  0
   -2.0888    3.0495    1.5316 H   0  0  0  0  0  0  0  0  0  0  0  0
   -0.6221    3.5931    2.4848 H   0  0  0  0  0  0  0  0  0  0  0  0
   -2.9243   -2.8300   -3.4525 H   0  0  0  0  0  0  0  0  0  0  0  0
   -2.1507   -4.2538   -2.6557 H   0  0  0  0  0  0  0  0  0  0  0  0
   -3.1717   -3.0864   -1.6844 H   0  0  0  0  0  0  0  0  0  0  0  0
 24  1  1  0      
  1 29  1  0      
 13  2  1  0      
  2 15  1  0      
  3 14  2  0      
  4 19  2  0      
  5 22  2  0      
  6 25  2  0      
  7 26  1  0      
  7 36  1  0      
  8 31  1  0      
  8 37  1  0      
  9 16  1  0      
  9 19  1  0      
  9 38  1  0      
 10 20  1  0      
 10 22  1  0      
 10 39  1  0      
 11 23  1  0      
 11 25  1  0      
 11 40  1  0      
 29 12  2  0      
 30 12  1  0      
 13 14  1  0      
 13 15  1  0      
 13 17  1  0      
 14 16  1  0      
 15 41  1  0      
 15 42  1  0      
 16 18  1  0      
 16 43  1  0      
 17 44  1  0      
 17 45  1  0      
 17 46  1  0      
 18 21  1  0      
 18 47  1  0      
 18 48  1  0      
 19 20  1  0      
 20 26  1  0      
 20 49  1  0      
 21 27  1  0      
 21 28  2  0      
 22 23  1  0      
 23 31  1  0      
 23 50  1  0      
 24 25  1  0      
 30 24  2  0      
 26 51  1  0      
 26 52  1  0      
 27 32  2  0      
 27 53  1  0      
 33 28  1  0      
 28 54  1  0      
 29 35  1  0      
 30 55  1  0      
 31 56  1  0      
 31 57  1  0      
 32 34  1  0      
 32 58  1  0      
 34 33  2  0      
 33 59  1  0      
 34 60  1  0      
 35 61  1  0      
 35 62  1  0      
 35 63  1  0      
 36 64  1  0      
 36 65  1  0      
 36 66  1  0      
 37 67  1  0      
 37 68  1  0      
 37 69  1  0      
M  END
