
  Chem3D Core 15.008161522013D

 47 50  0  0  0  0  0  0  0  0999 V2000
   -0.6426    4.4416   -2.0316 S   0  0  0  0  0  0  0  0  0  0  0  0
   -1.7292   -2.2262    6.6239 F   0  0  0  0  0  0  0  0  0  0  0  0
   -3.1507   -1.1532    5.4671 F   0  0  0  0  0  0  0  0  0  0  0  0
   -1.5144   -0.1268    6.3885 F   0  0  0  0  0  0  0  0  0  0  0  0
   -2.0813    3.6072    0.4152 O   0  0  0  0  0  0  0  0  0  0  0  0
   -1.0459   -1.4925    4.5870 O   0  0  0  0  0  0  0  0  0  0  0  0
   -1.2948    0.9646   -2.4717 N   0  0  0  0  0  0  0  0  0  0  0  0
    2.6273   -1.9901   -3.1100 N   0  0  0  0  0  0  0  0  0  0  0  0
   -0.9965    1.6485    0.1043 N   0  0  0  0  0  0  0  0  0  0  0  0
    0.2356   -0.7715   -3.3728 C   0  0  0  0  0  0  0  0  0  0  0  0
   -1.1098   -0.0785   -3.5010 C   0  0  0  0  0  0  0  0  0  0  0  0
    0.5863   -1.8225   -4.1484 C   0  0  0  0  0  0  0  0  0  0  0  0
   -0.9843    2.1928   -2.5748 C   0  0  0  0  0  0  0  0  0  0  0  0
    1.7972   -2.3988   -3.9765 C   0  0  0  0  0  0  0  0  0  0  0  0
    1.1441   -0.3646   -2.4678 C   0  0  0  0  0  0  0  0  0  0  0  0
   -1.1451    3.1218   -1.6100 C   0  0  0  0  0  0  0  0  0  0  0  0
   -0.2281   -2.3269   -5.0964 C   0  0  0  0  0  0  0  0  0  0  0  0
   -0.4496    2.7848   -3.6515 C   0  0  0  0  0  0  0  0  0  0  0  0
    2.1634   -3.4473   -4.7375 C   0  0  0  0  0  0  0  0  0  0  0  0
    2.3157   -1.0077   -2.3808 C   0  0  0  0  0  0  0  0  0  0  0  0
    0.1393   -3.3718   -5.8539 C   0  0  0  0  0  0  0  0  0  0  0  0
   -1.4971    2.8444   -0.3193 C   0  0  0  0  0  0  0  0  0  0  0  0
    1.3405   -3.9371   -5.6754 C   0  0  0  0  0  0  0  0  0  0  0  0
   -0.2422    4.0793   -3.3903 C   0  0  0  0  0  0  0  0  0  0  0  0
   -1.0795    0.9646    1.2635 C   0  0  0  0  0  0  0  0  0  0  0  0
   -0.4182   -0.2054    1.2972 C   0  0  0  0  0  0  0  0  0  0  0  0
   -1.7537    1.3155    2.3707 C   0  0  0  0  0  0  0  0  0  0  0  0
   -1.0853   -0.6346    3.5165 C   0  0  0  0  0  0  0  0  0  0  0  0
   -0.4267   -0.9775    2.3936 C   0  0  0  0  0  0  0  0  0  0  0  0
   -1.7553    0.5332    3.4632 C   0  0  0  0  0  0  0  0  0  0  0  0
   -1.8551   -1.2366    5.7446 C   0  0  0  0  0  0  0  0  0  0  0  0
   -1.7390    0.6534   -1.5736 H   0  0  0  0  0  0  0  0  0  0  0  0
   -0.4334    1.1285   -0.5552 H   0  0  0  0  0  0  0  0  0  0  0  0
   -1.9184   -0.8276   -3.3294 H   0  0  0  0  0  0  0  0  0  0  0  0
   -1.2493    0.3361   -4.5239 H   0  0  0  0  0  0  0  0  0  0  0  0
    0.9675    0.4819   -1.7887 H   0  0  0  0  0  0  0  0  0  0  0  0
   -1.2268   -1.9042   -5.2902 H   0  0  0  0  0  0  0  0  0  0  0  0
   -0.1975    2.3112   -4.6095 H   0  0  0  0  0  0  0  0  0  0  0  0
    3.1507   -3.9225   -4.6014 H   0  0  0  0  0  0  0  0  0  0  0  0
    3.0712   -0.6875   -1.6430 H   0  0  0  0  0  0  0  0  0  0  0  0
   -0.5444   -3.7676   -6.6239 H   0  0  0  0  0  0  0  0  0  0  0  0
    1.6483   -4.7961   -6.2946 H   0  0  0  0  0  0  0  0  0  0  0  0
    0.1949    4.7961   -4.0988 H   0  0  0  0  0  0  0  0  0  0  0  0
    0.1458   -0.5526    0.4143 H   0  0  0  0  0  0  0  0  0  0  0  0
   -2.3334    2.2479    2.4254 H   0  0  0  0  0  0  0  0  0  0  0  0
    0.1285   -1.9314    2.3746 H   0  0  0  0  0  0  0  0  0  0  0  0
   -2.3344    0.8900    4.3291 H   0  0  0  0  0  0  0  0  0  0  0  0
 16  1  1  0      
 24  1  1  0      
  2 31  1  0      
  3 31  1  0      
  4 31  1  0      
  5 22  2  0      
  6 28  1  0      
  6 31  1  0      
  7 11  1  0      
  7 13  1  0      
  7 32  1  0      
 14  8  1  0      
 20  8  2  0      
  9 22  1  0      
  9 25  1  0      
  9 33  1  0      
 10 11  1  0      
 10 12  1  0      
 15 10  2  0      
 11 34  1  0      
 11 35  1  0      
 12 14  1  0      
 12 17  2  0      
 16 13  2  0      
 13 18  1  0      
 19 14  2  0      
 20 15  1  0      
 15 36  1  0      
 16 22  1  0      
 17 21  1  0      
 17 37  1  0      
 18 24  2  0      
 18 38  1  0      
 23 19  1  0      
 19 39  1  0      
 20 40  1  0      
 21 23  2  0      
 21 41  1  0      
 23 42  1  0      
 24 43  1  0      
 25 26  1  0      
 25 27  2  0      
 26 29  2  0      
 26 44  1  0      
 30 27  1  0      
 27 45  1  0      
 29 28  1  0      
 28 30  2  0      
 29 46  1  0      
 30 47  1  0      
M  END
