
  Chem3D Core 15.010151511013D

 49 51  0  0  0  0  0  0  0  0999 V2000
   -7.5211    4.0845    1.4721 O   0  0  0  0  0  0  0  0  0  0  0  0
   -7.0386    2.9803    1.3870 C   0  0  0  0  0  0  0  0  0  0  0  0
   -7.9069    1.9426    1.1815 N   0  0  0  0  0  0  0  0  0  0  0  0
   -7.8746    0.8035    1.8413 O   0  0  0  0  0  0  0  0  0  0  0  0
   -5.6974    2.7740    1.5019 C   0  0  0  0  0  0  0  0  0  0  0  0
   -5.0484    1.6074    1.3297 C   0  0  0  0  0  0  0  0  0  0  0  0
   -3.7198    1.3843    1.4348 C   0  0  0  0  0  0  0  0  0  0  0  0
   -3.2461    0.1410    1.2103 C   0  0  0  0  0  0  0  0  0  0  0  0
   -1.9383   -0.1474    1.2975 C   0  0  0  0  0  0  0  0  0  0  0  0
   -1.0420    0.8001    1.6164 C   0  0  0  0  0  0  0  0  0  0  0  0
    0.4290    0.4679    1.7093 C   0  0  0  0  0  0  0  0  0  0  0  0
    0.9548    0.2904    0.3581 N   0  0  0  0  0  0  0  0  0  0  0  0
    2.3482   -0.1532    0.3229 C   0  0  0  0  0  0  0  0  0  0  0  0
    2.8121   -0.3213   -1.1309 C   0  0  0  0  0  0  0  0  0  0  0  0
    4.2472   -0.7685   -1.1901 C   0  0  0  0  0  0  0  0  0  0  0  0
    4.7069   -2.0342   -1.2499 C   0  0  0  0  0  0  0  0  0  0  0  0
    3.8752   -3.2850   -1.2537 C   0  0  0  0  0  0  0  0  0  0  0  0
    5.9777   -1.9718   -1.2926 N   0  0  0  0  0  0  0  0  0  0  0  0
    6.3979   -0.7772   -1.2643 C   0  0  0  0  0  0  0  0  0  0  0  0
    5.3292    0.0256   -1.1978 C   0  0  0  0  0  0  0  0  0  0  0  0
    5.4742    1.3558   -1.1504 C   0  0  0  0  0  0  0  0  0  0  0  0
    6.7228    1.8546   -1.1752 C   0  0  0  0  0  0  0  0  0  0  0  0
    7.7937    1.0423   -1.2442 C   0  0  0  0  0  0  0  0  0  0  0  0
    7.6442   -0.2929   -1.2892 C   0  0  0  0  0  0  0  0  0  0  0  0
   -1.5005    2.0416    1.8426 C   0  0  0  0  0  0  0  0  0  0  0  0
   -2.8099    2.3258    1.7540 C   0  0  0  0  0  0  0  0  0  0  0  0
   -8.8078    2.2647    0.8556 H   0  0  0  0  0  0  0  0  0  0  0  0
   -8.6844    0.6343    2.2879 H   0  0  0  0  0  0  0  0  0  0  0  0
   -5.1263    3.6895    1.7275 H   0  0  0  0  0  0  0  0  0  0  0  0
   -5.6615    0.7329    1.0582 H   0  0  0  0  0  0  0  0  0  0  0  0
   -3.9257   -0.6875    0.9434 H   0  0  0  0  0  0  0  0  0  0  0  0
   -1.5955   -1.1776    1.1029 H   0  0  0  0  0  0  0  0  0  0  0  0
    0.9937    1.2678    2.2413 H   0  0  0  0  0  0  0  0  0  0  0  0
    0.5494   -0.4713    2.2980 H   0  0  0  0  0  0  0  0  0  0  0  0
    0.3525   -0.4132   -0.1374 H   0  0  0  0  0  0  0  0  0  0  0  0
    2.9970    0.5931    0.8400 H   0  0  0  0  0  0  0  0  0  0  0  0
    2.4449   -1.1280    0.8566 H   0  0  0  0  0  0  0  0  0  0  0  0
    2.1616   -1.0533   -1.6623 H   0  0  0  0  0  0  0  0  0  0  0  0
    2.6977    0.6417   -1.6803 H   0  0  0  0  0  0  0  0  0  0  0  0
    3.7388   -3.6463   -2.2980 H   0  0  0  0  0  0  0  0  0  0  0  0
    4.3853   -4.0845   -0.6700 H   0  0  0  0  0  0  0  0  0  0  0  0
    2.8733   -3.1310   -0.7966 H   0  0  0  0  0  0  0  0  0  0  0  0
    6.6066   -2.8064   -1.3420 H   0  0  0  0  0  0  0  0  0  0  0  0
    4.6024    2.0259   -1.0905 H   0  0  0  0  0  0  0  0  0  0  0  0
    6.8704    2.9472   -1.1368 H   0  0  0  0  0  0  0  0  0  0  0  0
    8.8078    1.4760   -1.2623 H   0  0  0  0  0  0  0  0  0  0  0  0
    8.5138   -0.9667   -1.3435 H   0  0  0  0  0  0  0  0  0  0  0  0
   -0.7915    2.8452    2.1038 H   0  0  0  0  0  0  0  0  0  0  0  0
   -3.0933    3.3700    1.9571 H   0  0  0  0  0  0  0  0  0  0  0  0
  1  2  2  0      
  2  3  1  0      
  2  5  1  0      
  3  4  1  0      
  3 27  1  0      
  4 28  1  0      
  5  6  2  0      
  5 29  1  0      
  6  7  1  0      
  6 30  1  0      
  7  8  1  0      
  7 26  2  0      
  8  9  2  0      
  8 31  1  0      
  9 10  1  0      
  9 32  1  0      
 10 11  1  0      
 10 25  2  0      
 11 12  1  0      
 11 33  1  0      
 11 34  1  0      
 12 13  1  0      
 12 35  1  0      
 13 14  1  0      
 13 36  1  0      
 13 37  1  0      
 14 15  1  0      
 14 38  1  0      
 14 39  1  0      
 16 15  2  0      
 15 20  1  0      
 16 17  1  0      
 18 16  1  0      
 17 40  1  0      
 17 41  1  0      
 17 42  1  0      
 19 18  1  0      
 18 43  1  0      
 19 20  2  0      
 24 19  1  0      
 20 21  1  0      
 22 21  2  0      
 21 44  1  0      
 22 23  1  0      
 22 45  1  0      
 23 24  2  0      
 23 46  1  0      
 24 47  1  0      
 25 26  1  0      
 25 48  1  0      
 26 49  1  0      
M  END
