
  Chem3D Core 15.010021516273D

 41 43  0  0  0  0  0  0  0  0999 V2000
    0.9308    0.3350   -0.1063 S   0  0  0  0  0  0  0  0  0  0  0  0
   -5.5935    0.5281    3.8468 F   0  0  0  0  0  0  0  0  0  0  0  0
   -6.3845   -0.2786    1.9480 F   0  0  0  0  0  0  0  0  0  0  0  0
   -5.9165    1.9816    2.0779 O   0  0  0  0  0  0  0  0  0  0  0  0
    4.1578   -1.2637    0.2273 O   0  0  0  0  0  0  0  0  0  0  0  0
    1.9822    1.1394   -0.7200 O   0  0  0  0  0  0  0  0  0  0  0  0
    5.5887   -2.4439   -1.8607 O   0  0  0  0  0  0  0  0  0  0  0  0
   -1.5663    0.3927    0.9305 N   0  0  0  0  0  0  0  0  0  0  0  0
   -1.0583    2.1716   -0.0613 N   0  0  0  0  0  0  0  0  0  0  0  0
    1.5105   -2.5117   -1.7553 N   0  0  0  0  0  0  0  0  0  0  0  0
   -2.5492    1.1873    0.9999 C   0  0  0  0  0  0  0  0  0  0  0  0
   -2.2370    2.3261    0.3706 C   0  0  0  0  0  0  0  0  0  0  0  0
   -0.6723    1.0131    0.2810 C   0  0  0  0  0  0  0  0  0  0  0  0
    2.1848   -1.9578   -0.8390 C   0  0  0  0  0  0  0  0  0  0  0  0
   -3.7490    1.0337    1.5745 C   0  0  0  0  0  0  0  0  0  0  0  0
    3.5357   -1.8930   -0.8265 C   0  0  0  0  0  0  0  0  0  0  0  0
   -4.6596    2.0313    1.5255 C   0  0  0  0  0  0  0  0  0  0  0  0
    1.3268   -1.3619    0.2604 C   0  0  0  0  0  0  0  0  0  0  0  0
   -3.1021    3.3389    0.2950 C   0  0  0  0  0  0  0  0  0  0  0  0
    4.2149   -2.4595   -1.8546 C   0  0  0  0  0  0  0  0  0  0  0  0
   -4.2996    3.1632    0.8787 C   0  0  0  0  0  0  0  0  0  0  0  0
    3.4676   -3.0488   -2.8085 C   0  0  0  0  0  0  0  0  0  0  0  0
    2.1318   -3.0431   -2.7155 C   0  0  0  0  0  0  0  0  0  0  0  0
   -6.3481    0.8028    2.7590 C   0  0  0  0  0  0  0  0  0  0  0  0
    5.0907   -0.2521   -0.0803 C   0  0  0  0  0  0  0  0  0  0  0  0
    6.2816   -3.1978   -2.8279 C   0  0  0  0  0  0  0  0  0  0  0  0
   -0.5049    2.8743   -0.6016 H   0  0  0  0  0  0  0  0  0  0  0  0
   -3.9497    0.0762    2.0767 H   0  0  0  0  0  0  0  0  0  0  0  0
    1.8319   -1.4141    1.2503 H   0  0  0  0  0  0  0  0  0  0  0  0
    0.3747   -1.9291    0.3772 H   0  0  0  0  0  0  0  0  0  0  0  0
   -2.8398    4.2740   -0.2243 H   0  0  0  0  0  0  0  0  0  0  0  0
   -5.0273    3.9918    0.8247 H   0  0  0  0  0  0  0  0  0  0  0  0
    3.9149   -3.5470   -3.6821 H   0  0  0  0  0  0  0  0  0  0  0  0
    1.5141   -3.5207   -3.4950 H   0  0  0  0  0  0  0  0  0  0  0  0
   -7.3704    1.0029    3.1001 H   0  0  0  0  0  0  0  0  0  0  0  0
    5.1729    0.4168    0.8056 H   0  0  0  0  0  0  0  0  0  0  0  0
    6.0968   -0.6857   -0.2651 H   0  0  0  0  0  0  0  0  0  0  0  0
    4.7452    0.3478   -0.9509 H   0  0  0  0  0  0  0  0  0  0  0  0
    7.3704   -3.0965   -2.6197 H   0  0  0  0  0  0  0  0  0  0  0  0
    6.0100   -4.2740   -2.7471 H   0  0  0  0  0  0  0  0  0  0  0  0
    6.0883   -2.7944   -3.8468 H   0  0  0  0  0  0  0  0  0  0  0  0
  1  6  2  0      
  1 13  1  0      
  1 18  1  0      
  2 24  1  0      
  3 24  1  0      
  4 17  1  0      
  4 24  1  0      
  5 16  1  0      
  5 25  1  0      
  7 20  1  0      
  7 26  1  0      
  8 11  1  0      
 13  8  2  0      
  9 12  1  0      
  9 13  1  0      
  9 27  1  0      
 14 10  2  0      
 10 23  1  0      
 11 12  1  0      
 11 15  2  0      
 19 12  2  0      
 16 14  1  0      
 14 18  1  0      
 15 17  1  0      
 15 28  1  0      
 20 16  2  0      
 17 21  2  0      
 18 29  1  0      
 18 30  1  0      
 21 19  1  0      
 19 31  1  0      
 22 20  1  0      
 21 32  1  0      
 22 23  2  0      
 22 33  1  0      
 23 34  1  0      
 24 35  1  0      
 25 36  1  0      
 25 37  1  0      
 25 38  1  0      
 26 39  1  0      
 26 40  1  0      
 26 41  1  0      
M  END
