
  Chem3D Core 15.004011618123D

  0  0  0     0  0              0 V3000
M  V30 BEGIN CTAB
M  V30 COUNTS 74 76 0 0 0
M  V30 BEGIN ATOM
M  V30 1 O -0.159426 7.837954 0.221663 0
M  V30 2 O -2.714930 -6.724161 -0.321888 0
M  V30 3 O 0.557612 -7.263808 2.347488 0
M  V30 4 C 0.768805 0.668246 -0.439412 0
M  V30 5 C 2.205184 1.227222 -0.640274 0
M  V30 6 C 0.970886 -0.805255 -0.872362 0
M  V30 7 C 3.162033 0.040646 -0.361351 0
M  V30 8 C 2.288669 -1.218411 -0.210101 0
M  V30 9 C -0.320133 1.300006 -1.346623 0
M  V30 10 C 2.645568 2.576547 -0.024211 0
M  V30 11 C -0.296410 -1.597643 -0.648033 0
M  V30 12 C 0.312815 0.736055 1.035033 0
M  V30 13 C -1.154056 0.273357 -2.136567 0
M  V30 14 C -1.511870 -0.960803 -1.293125 0
M  V30 15 C 2.982790 2.615459 1.477698 0
M  V30 16 C 1.658007 3.687851 -0.296888 0
M  V30 17 C -0.350773 -2.706304 0.113897 0
M  V30 18 C 1.990337 4.925469 -0.693927 0
M  V30 19 C -1.477459 -3.385593 0.394480 0
M  V30 20 C 0.979581 6.040406 -0.857670 0
M  V30 21 C -1.598941 -4.463161 1.192749 0
M  V30 22 C 0.858443 6.890060 0.423456 0
M  V30 23 C -2.949807 -5.108039 1.429508 0
M  V30 24 C -0.485229 -5.144222 1.957037 0
M  V30 25 C 1.303763 6.850416 -2.124647 0
M  V30 26 C -2.903418 -6.591132 1.067546 0
M  V30 27 C -0.429711 -6.622035 1.575688 0
M  V30 28 C -1.774612 -7.309682 1.804613 0
M  V30 29 C 2.138517 7.656244 0.764982 0
M  V30 30 C 0.434962 6.039110 1.627167 0
M  V30 31 H 2.273140 1.392250 -1.749606 0
M  V30 32 H 1.183352 -0.849985 -1.970387 0
M  V30 33 H -2.025328 -1.707071 -1.945075 0
M  V30 34 H -0.296417 8.336422 1.030640 0
M  V30 35 H -2.807662 -7.647675 -0.566887 0
M  V30 36 H 1.419915 -6.914911 2.109702 0
M  V30 37 H 3.881789 -0.081385 -1.205704 0
M  V30 38 H 3.776695 0.172087 0.554395 0
M  V30 39 H 2.745886 -2.118842 -0.680071 0
M  V30 40 H 2.144749 -1.436784 0.872432 0
M  V30 41 H -1.023185 1.905204 -0.727299 0
M  V30 42 H 0.126667 2.013826 -2.077417 0
M  V30 43 H 3.606442 2.843151 -0.536726 0
M  V30 44 H 0.103978 1.778398 1.358031 0
M  V30 45 H -0.632231 0.176688 1.208504 0
M  V30 46 H 1.066741 0.317713 1.735747 0
M  V30 47 H -0.594517 -0.049474 -3.046662 0
M  V30 48 H -2.085872 0.754880 -2.519794 0
M  V30 49 H -2.220590 -0.642988 -0.491361 0
M  V30 50 H 3.368381 3.621250 1.765305 0
M  V30 51 H 3.777310 1.895358 1.767024 0
M  V30 52 H 2.102485 2.426045 2.125936 0
M  V30 53 H 0.600457 3.486862 -0.077365 0
M  V30 54 H 0.596530 -3.050950 0.547185 0
M  V30 55 H 3.049599 5.170956 -0.870897 0
M  V30 56 H -2.417666 -3.027090 -0.053345 0
M  V30 57 H -0.023738 5.573558 -1.029597 0
M  V30 58 H -3.763564 -4.610966 0.852669 0
M  V30 59 H -3.208640 -4.991754 2.508425 0
M  V30 60 H 0.516436 -4.692229 1.794817 0
M  V30 61 H -0.700974 -5.041450 3.046662 0
M  V30 62 H 0.562074 7.663019 -2.295092 0
M  V30 63 H 1.283228 6.196748 -3.027035 0
M  V30 64 H 2.313727 7.315144 -2.081246 0
M  V30 65 H -3.881789 -7.075240 1.298586 0
M  V30 66 H -0.118399 -6.725561 0.510126 0
M  V30 67 H -1.721731 -8.374218 1.474226 0
M  V30 68 H -2.002071 -7.316261 2.897696 0
M  V30 69 H 2.996424 6.966827 0.929501 0
M  V30 70 H 2.009612 8.252865 1.696597 0
M  V30 71 H 2.421713 8.374218 -0.035673 0
M  V30 72 H 0.224671 6.675509 2.516630 0
M  V30 73 H -0.491702 5.459595 1.413447 0
M  V30 74 H 1.229614 5.319968 1.926455 0
M  V30 END ATOM
M  V30 BEGIN BOND
M  V30 1 1 1 22
M  V30 2 1 1 34
M  V30 3 1 26 2
M  V30 4 1 2 35
M  V30 5 1 27 3
M  V30 6 1 3 36
M  V30 7 1 4 5
M  V30 8 1 4 6
M  V30 9 1 4 9
M  V30 10 1 4 12
M  V30 11 1 5 7
M  V30 12 1 5 10
M  V30 13 1 5 31
M  V30 14 1 6 8
M  V30 15 1 6 11
M  V30 16 1 6 32
M  V30 17 1 7 8
M  V30 18 1 7 37
M  V30 19 1 7 38
M  V30 20 1 8 39
M  V30 21 1 8 40
M  V30 22 1 9 13
M  V30 23 1 9 41
M  V30 24 1 9 42
M  V30 25 1 10 15
M  V30 26 1 10 16
M  V30 27 1 10 43
M  V30 28 1 11 14
M  V30 29 2 11 17
M  V30 30 1 12 44
M  V30 31 1 12 45
M  V30 32 1 12 46
M  V30 33 1 13 14
M  V30 34 1 13 47
M  V30 35 1 13 48
M  V30 36 1 14 33
M  V30 37 1 14 49
M  V30 38 1 15 50
M  V30 39 1 15 51
M  V30 40 1 15 52
M  V30 41 2 16 18
M  V30 42 1 16 53
M  V30 43 1 17 19
M  V30 44 1 17 54
M  V30 45 1 18 20
M  V30 46 1 18 55
M  V30 47 2 19 21
M  V30 48 1 19 56
M  V30 49 1 20 22
M  V30 50 1 20 25
M  V30 51 1 20 57
M  V30 52 1 21 23
M  V30 53 1 21 24
M  V30 54 1 22 29
M  V30 55 1 22 30
M  V30 56 1 23 26
M  V30 57 1 23 58
M  V30 58 1 23 59
M  V30 59 1 27 24
M  V30 60 1 24 60
M  V30 61 1 24 61
M  V30 62 1 25 62
M  V30 63 1 25 63
M  V30 64 1 25 64
M  V30 65 1 26 28
M  V30 66 1 26 65
M  V30 67 1 28 27
M  V30 68 1 27 66
M  V30 69 1 28 67
M  V30 70 1 28 68
M  V30 71 1 29 69
M  V30 72 1 29 70
M  V30 73 1 29 71
M  V30 74 1 30 72
M  V30 75 1 30 73
M  V30 76 1 30 74
M  V30 END BOND
M  V30 END CTAB
M  END
