
  Chem3D Core 15.012311512123D

 62 66  0  0  0  0  0  0  0  0999 V2000
    4.4595    0.7069    1.9276 O   0  0  0  0  0  0  0  0  0  0  0  0
    3.4833    1.4078    2.0578 C   0  0  0  0  0  0  0  0  0  0  0  0
    3.6119    2.7134    2.4667 C   0  0  0  0  0  0  0  0  0  0  0  0
    4.8602    3.1699    2.8151 C   0  0  0  0  0  0  0  0  0  0  0  0
    5.3642    4.5373    2.3504 C   0  0  0  0  0  0  0  0  0  0  0  0
    5.7092    2.4950    3.3657 O   0  0  0  0  0  0  0  0  0  0  0  0
    2.5427    3.5468    2.4055 C   0  0  0  0  0  0  0  0  0  0  0  0
    2.5893    4.9733    2.9359 C   0  0  0  0  0  0  0  0  0  0  0  0
    1.3500    3.0880    1.9709 C   0  0  0  0  0  0  0  0  0  0  0  0
    0.2417    3.8353    1.8131 C   0  0  0  0  0  0  0  0  0  0  0  0
   -0.8636    3.3730    1.4111 N   0  0  0  0  0  0  0  0  0  0  0  0
   -0.9630    2.1396    1.1324 C   0  0  0  0  0  0  0  0  0  0  0  0
   -2.0976    1.7220    0.7305 N   0  0  0  0  0  0  0  0  0  0  0  0
   -2.5007    0.5656    0.3807 C   0  0  0  0  0  0  0  0  0  0  0  0
   -1.8023   -0.4898    0.3569 N   0  0  0  0  0  0  0  0  0  0  0  0
   -2.2978   -1.5961   -0.0067 C   0  0  0  0  0  0  0  0  0  0  0  0
   -3.5664   -1.8342   -0.4060 C   0  0  0  0  0  0  0  0  0  0  0  0
   -4.0077   -2.9834   -0.7648 N   0  0  0  0  0  0  0  0  0  0  0  0
   -3.1660   -4.2161   -0.7920 C   0  0  0  0  0  0  0  0  0  0  0  0
   -3.1631   -4.7596   -2.2288 C   0  0  0  0  0  0  0  0  0  0  0  0
   -4.5236   -4.9820   -2.7161 N   0  0  0  0  0  0  0  0  0  0  0  0
   -5.3587   -3.7837   -2.6473 C   0  0  0  0  0  0  0  0  0  0  0  0
   -5.4096   -3.2169   -1.2200 C   0  0  0  0  0  0  0  0  0  0  0  0
   -4.3056   -0.7046   -0.3812 C   0  0  0  0  0  0  0  0  0  0  0  0
   -3.7872    0.4724    0.0043 C   0  0  0  0  0  0  0  0  0  0  0  0
    0.0506    1.3889    1.2594 N   0  0  0  0  0  0  0  0  0  0  0  0
    1.1820    1.7942    1.6607 C   0  0  0  0  0  0  0  0  0  0  0  0
    2.2254    0.9370    1.7618 N   0  0  0  0  0  0  0  0  0  0  0  0
    1.9635   -0.5004    1.5034 C   0  0  0  0  0  0  0  0  0  0  0  0
    3.0733   -1.5677    1.4076 C   0  0  0  0  0  0  0  0  0  0  0  0
    2.2862   -2.8875    1.3665 C   0  0  0  0  0  0  0  0  0  0  0  0
    1.1231   -2.6619    2.3458 C   0  0  0  0  0  0  0  0  0  0  0  0
    1.0807   -1.1435    2.5969 C   0  0  0  0  0  0  0  0  0  0  0  0
    4.7650    4.9669    1.5191 H   0  0  0  0  0  0  0  0  0  0  0  0
    5.4627    5.2571    3.1931 H   0  0  0  0  0  0  0  0  0  0  0  0
    6.3865    4.4232    1.9212 H   0  0  0  0  0  0  0  0  0  0  0  0
    3.3653    5.1258    3.7136 H   0  0  0  0  0  0  0  0  0  0  0  0
    2.6986    5.7220    2.1195 H   0  0  0  0  0  0  0  0  0  0  0  0
    1.6793    5.2291    3.5216 H   0  0  0  0  0  0  0  0  0  0  0  0
    0.2129    4.9197    2.0024 H   0  0  0  0  0  0  0  0  0  0  0  0
   -2.8332    2.4721    0.6801 H   0  0  0  0  0  0  0  0  0  0  0  0
   -1.5235   -2.3745    0.0446 H   0  0  0  0  0  0  0  0  0  0  0  0
   -2.1188   -4.1267   -0.4447 H   0  0  0  0  0  0  0  0  0  0  0  0
   -3.6311   -4.9708   -0.1142 H   0  0  0  0  0  0  0  0  0  0  0  0
   -2.6417   -4.0397   -2.9031 H   0  0  0  0  0  0  0  0  0  0  0  0
   -2.6005   -5.7220   -2.2768 H   0  0  0  0  0  0  0  0  0  0  0  0
   -4.4783   -5.3083   -3.7136 H   0  0  0  0  0  0  0  0  0  0  0  0
   -6.3865   -4.0395   -2.9982 H   0  0  0  0  0  0  0  0  0  0  0  0
   -4.9555   -3.0120   -3.3450 H   0  0  0  0  0  0  0  0  0  0  0  0
   -5.8769   -3.9692   -0.5410 H   0  0  0  0  0  0  0  0  0  0  0  0
   -6.0984   -2.3504   -1.2091 H   0  0  0  0  0  0  0  0  0  0  0  0
   -5.3648   -0.6581   -0.6672 H   0  0  0  0  0  0  0  0  0  0  0  0
   -4.4406    1.3632    0.0055 H   0  0  0  0  0  0  0  0  0  0  0  0
    1.4315   -0.5741    0.5198 H   0  0  0  0  0  0  0  0  0  0  0  0
    3.7219   -1.4535    0.5086 H   0  0  0  0  0  0  0  0  0  0  0  0
    3.6967   -1.5958    2.3333 H   0  0  0  0  0  0  0  0  0  0  0  0
    2.9124   -3.7685    1.6359 H   0  0  0  0  0  0  0  0  0  0  0  0
    1.8895   -3.0513    0.3356 H   0  0  0  0  0  0  0  0  0  0  0  0
    0.1665   -3.0272    1.9039 H   0  0  0  0  0  0  0  0  0  0  0  0
    1.2874   -3.2104    3.3028 H   0  0  0  0  0  0  0  0  0  0  0  0
    1.5312   -0.9114    3.5918 H   0  0  0  0  0  0  0  0  0  0  0  0
    0.0333   -0.7696    2.6145 H   0  0  0  0  0  0  0  0  0  0  0  0
  1  2  2  0      
  2  3  1  0      
 28  2  1  0      
  3  4  1  0      
  3  7  2  0      
  4  5  1  0      
  4  6  2  0      
  5 34  1  0      
  5 35  1  0      
  5 36  1  0      
  7  8  1  0      
  7  9  1  0      
  8 37  1  0      
  8 38  1  0      
  8 39  1  0      
  9 10  1  0      
  9 27  2  0      
 10 11  2  0      
 10 40  1  0      
 11 12  1  0      
 12 13  1  0      
 12 26  2  0      
 13 14  1  0      
 13 41  1  0      
 14 15  2  0      
 25 14  1  0      
 15 16  1  0      
 17 16  2  0      
 16 42  1  0      
 17 18  1  0      
 17 24  1  0      
 18 19  1  0      
 18 23  1  0      
 19 20  1  0      
 19 43  1  0      
 19 44  1  0      
 20 21  1  0      
 20 45  1  0      
 20 46  1  0      
 21 22  1  0      
 21 47  1  0      
 22 23  1  0      
 22 48  1  0      
 22 49  1  0      
 23 50  1  0      
 23 51  1  0      
 24 25  2  0      
 24 52  1  0      
 25 53  1  0      
 26 27  1  0      
 28 27  1  0      
 28 29  1  0      
 29 30  1  0      
 29 33  1  0      
 29 54  1  0      
 30 31  1  0      
 30 55  1  0      
 30 56  1  0      
 31 32  1  0      
 31 57  1  0      
 31 58  1  0      
 32 33  1  0      
 32 59  1  0      
 32 60  1  0      
 33 61  1  0      
 33 62  1  0      
M  END
