
  Chem3D Core 15.003241614293D

 46 50  0  0  0  0  0  0  0  0999 V2000
    1.4519   -2.5658    0.4220 C   0  0  0  0  0  0  0  0  0  0  0  0
    1.9427   -3.7418    0.0103 C   0  0  0  0  0  0  0  0  0  0  0  0
    2.7177   -3.5135   -0.9652 N   0  0  0  0  0  0  0  0  0  0  0  0
    2.7830   -2.2757   -1.2360 C   0  0  0  0  0  0  0  0  0  0  0  0
    1.9925   -1.6193   -0.3678 C   0  0  0  0  0  0  0  0  0  0  0  0
    1.8354   -0.2792   -0.4049 C   0  0  0  0  0  0  0  0  0  0  0  0
    2.5835    0.3385   -1.3521 C   0  0  0  0  0  0  0  0  0  0  0  0
    3.3323   -0.4229   -2.1797 C   0  0  0  0  0  0  0  0  0  0  0  0
    3.4329   -1.6827   -2.1382 N   0  0  0  0  0  0  0  0  0  0  0  0
    2.6989    1.6834   -1.5171 C   0  0  0  0  0  0  0  0  0  0  0  0
    3.0043    2.2671   -2.5276 O   0  0  0  0  0  0  0  0  0  0  0  0
    2.7438    2.3766   -0.3556 N   0  0  0  0  0  0  0  0  0  0  0  0
    0.9709    0.1426    0.4338 N   0  0  0  0  0  0  0  0  0  0  0  0
    0.2862    1.4419    0.6575 C   0  0  0  0  0  0  0  0  0  0  0  0
   -0.7626    1.2523    1.7815 C   0  0  0  0  0  0  0  0  0  0  0  0
   -1.8779    0.2828    1.3484 C   0  0  0  0  0  0  0  0  0  0  0  0
   -2.5866    0.8439    0.1056 C   0  0  0  0  0  0  0  0  0  0  0  0
   -1.5584    1.0100   -1.0250 C   0  0  0  0  0  0  0  0  0  0  0  0
   -0.4557    1.9868   -0.5800 C   0  0  0  0  0  0  0  0  0  0  0  0
   -1.0866    3.3494   -0.2419 C   0  0  0  0  0  0  0  0  0  0  0  0
   -2.1009    3.1683    0.8878 C   0  0  0  0  0  0  0  0  0  0  0  0
   -1.3971    2.6128    2.1275 C   0  0  0  0  0  0  0  0  0  0  0  0
   -3.2076    2.2102    0.4441 C   0  0  0  0  0  0  0  0  0  0  0  0
   -2.6671    4.4122    1.1997 O   0  0  0  0  0  0  0  0  0  0  0  0
   -3.3908    0.1379   -0.2189 H   0  0  0  0  0  0  0  0  0  0  0  0
    0.7455   -2.4580    1.2540 H   0  0  0  0  0  0  0  0  0  0  0  0
    1.7580   -4.7537    0.3853 H   0  0  0  0  0  0  0  0  0  0  0  0
    3.2388   -4.2523   -1.4911 H   0  0  0  0  0  0  0  0  0  0  0  0
    3.9677    0.0255   -2.9641 H   0  0  0  0  0  0  0  0  0  0  0  0
    2.9180    3.3691   -0.4054 H   0  0  0  0  0  0  0  0  0  0  0  0
    2.6598    1.8835    0.5213 H   0  0  0  0  0  0  0  0  0  0  0  0
    0.5914   -0.6292    1.0334 H   0  0  0  0  0  0  0  0  0  0  0  0
    1.0181    2.1689    1.0690 H   0  0  0  0  0  0  0  0  0  0  0  0
   -0.2582    0.8460    2.6939 H   0  0  0  0  0  0  0  0  0  0  0  0
   -2.6112    0.1473    2.1777 H   0  0  0  0  0  0  0  0  0  0  0  0
   -1.4657   -0.7287    1.1285 H   0  0  0  0  0  0  0  0  0  0  0  0
   -1.1164    0.0222   -1.2935 H   0  0  0  0  0  0  0  0  0  0  0  0
   -2.0624    1.3939   -1.9430 H   0  0  0  0  0  0  0  0  0  0  0  0
    0.2496    2.1308   -1.4309 H   0  0  0  0  0  0  0  0  0  0  0  0
   -0.2943    4.0740    0.0591 H   0  0  0  0  0  0  0  0  0  0  0  0
   -1.5879    3.7760   -1.1421 H   0  0  0  0  0  0  0  0  0  0  0  0
   -2.1252    2.4966    2.9641 H   0  0  0  0  0  0  0  0  0  0  0  0
   -0.6160    3.3259    2.4806 H   0  0  0  0  0  0  0  0  0  0  0  0
   -3.9677    2.0966    1.2520 H   0  0  0  0  0  0  0  0  0  0  0  0
   -3.7398    2.6209   -0.4455 H   0  0  0  0  0  0  0  0  0  0  0  0
   -3.1333    4.7537    0.4329 H   0  0  0  0  0  0  0  0  0  0  0  0
  2  1  2  0      
  1  5  1  0      
  1 26  1  0      
  3  2  1  0      
  2 27  1  0      
  3  4  1  0      
  3 28  1  0      
  5  4  1  0      
  9  4  2  0      
  5  6  2  0      
  6  7  1  0      
  6 13  1  0      
  7  8  2  0      
  7 10  1  0      
  8  9  1  0      
  8 29  1  0      
 10 11  2  0      
 10 12  1  0      
 12 30  1  0      
 12 31  1  0      
 14 13  1  0      
 13 32  1  0      
 14 15  1  0      
 14 19  1  0      
 14 33  1  0      
 15 16  1  0      
 15 22  1  0      
 15 34  1  0      
 17 16  1  0      
 16 35  1  0      
 16 36  1  0      
 17 18  1  0      
 23 17  1  0      
 17 25  1  0      
 18 19  1  0      
 18 37  1  0      
 18 38  1  0      
 19 20  1  0      
 19 39  1  0      
 21 20  1  0      
 20 40  1  0      
 20 41  1  0      
 22 21  1  0      
 21 23  1  0      
 21 24  1  0      
 22 42  1  0      
 22 43  1  0      
 23 44  1  0      
 23 45  1  0      
 24 46  1  0      
M  END
