
  Chem3D Core 15.004011617503D

  0  0  0     0  0              0 V3000
M  V30 BEGIN CTAB
M  V30 COUNTS 44 46 0 0 0
M  V30 BEGIN ATOM
M  V30 1 F 0.690175 3.987785 1.464324 0
M  V30 2 O -3.836468 2.781873 0.948805 0
M  V30 3 O -5.825178 -0.563537 0.189461 0
M  V30 4 O -6.147896 1.562905 0.560091 0
M  V30 5 N -1.913174 -0.511006 0.480834 0
M  V30 6 N 2.191150 1.586796 1.174935 0
M  V30 7 N 4.675535 1.798044 -0.192212 0
M  V30 8 C -1.204354 0.525671 0.724212 0
M  V30 9 C -1.875677 1.679994 0.888659 0
M  V30 10 C -3.238740 1.737677 0.800204 0
M  V30 11 C 0.909192 1.656096 1.092286 0
M  V30 12 C -3.924131 0.583743 0.538278 0
M  V30 13 C 0.141962 0.570695 0.830168 0
M  V30 14 C 0.180274 2.788549 1.236622 0
M  V30 15 C -1.158866 2.787867 1.138473 0
M  V30 16 C -3.180408 -0.528652 0.386201 0
M  V30 17 C -5.294699 0.508908 0.426126 0
M  V30 18 C -1.214827 -1.828975 0.287511 0
M  V30 19 C 3.093690 2.740571 1.454359 0
M  V30 20 C 2.996679 0.349671 0.927140 0
M  V30 21 C 3.907206 2.982851 0.172896 0
M  V30 22 C 3.823800 0.623491 -0.342618 0
M  V30 23 C -1.979349 -3.133080 -0.008930 0
M  V30 24 C 5.453315 2.034973 -1.399221 0
M  V30 25 H -5.757727 2.422798 0.748641 0
M  V30 26 H 0.641983 -0.386330 0.687083 0
M  V30 27 H -1.652872 3.765541 1.271149 0
M  V30 28 H -3.643967 -1.495911 0.174082 0
M  V30 29 H -0.505140 -1.726126 -0.572243 0
M  V30 30 H -0.634063 -2.057037 1.217018 0
M  V30 31 H 2.649876 3.674923 1.834930 0
M  V30 32 H 3.791974 2.456121 2.277144 0
M  V30 33 H 2.471833 -0.618402 0.826962 0
M  V30 34 H 3.684133 0.185250 1.790244 0
M  V30 35 H 3.210781 3.275179 -0.649085 0
M  V30 36 H 4.597464 3.843690 0.346124 0
M  V30 37 H 4.453413 -0.274121 -0.556435 0
M  V30 38 H 3.126010 0.750616 -1.205001 0
M  V30 39 H -1.270857 -3.987785 -0.115969 0
M  V30 40 H -2.674669 -3.409546 0.816812 0
M  V30 41 H -2.545933 -3.079417 -0.966969 0
M  V30 42 H 6.086488 1.151357 -1.643713 0
M  V30 43 H 6.147896 2.895263 -1.261586 0
M  V30 44 H 4.802073 2.250402 -2.277144 0
M  V30 END ATOM
M  V30 BEGIN BOND
M  V30 1 1 1 14
M  V30 2 2 2 10
M  V30 3 2 3 17
M  V30 4 1 4 17
M  V30 5 1 4 25
M  V30 6 1 5 8
M  V30 7 1 16 5
M  V30 8 1 5 18
M  V30 9 1 6 11
M  V30 10 1 6 19
M  V30 11 1 6 20
M  V30 12 1 21 7
M  V30 13 1 7 22
M  V30 14 1 7 24
M  V30 15 1 9 8
M  V30 16 2 13 8
M  V30 17 1 9 10
M  V30 18 2 15 9
M  V30 19 1 10 12
M  V30 20 1 13 11
M  V30 21 2 11 14
M  V30 22 2 12 16
M  V30 23 1 12 17
M  V30 24 1 13 26
M  V30 25 1 14 15
M  V30 26 1 15 27
M  V30 27 1 16 28
M  V30 28 1 18 23
M  V30 29 1 18 29
M  V30 30 1 18 30
M  V30 31 1 19 21
M  V30 32 1 19 31
M  V30 33 1 19 32
M  V30 34 1 22 20
M  V30 35 1 20 33
M  V30 36 1 20 34
M  V30 37 1 21 35
M  V30 38 1 21 36
M  V30 39 1 22 37
M  V30 40 1 22 38
M  V30 41 1 23 39
M  V30 42 1 23 40
M  V30 43 1 23 41
M  V30 44 1 24 42
M  V30 45 1 24 43
M  V30 46 1 24 44
M  V30 END BOND
M  V30 END CTAB
M  END
