
  Chem3D Core 15.008171513373D

 52 54  0  0  0  0  0  0  0  0999 V2000
   -3.3855    3.2770    2.2674 C   0  0  0  0  0  0  0  0  0  0  0  0
   -4.2754    5.3105    2.4288 C   0  0  0  0  0  0  0  0  0  0  0  0
   -4.3742    4.0451    2.5090 N   0  0  0  0  0  0  0  0  0  0  0  0
   -3.4738    2.0649    2.3460 O   0  0  0  0  0  0  0  0  0  0  0  0
   -3.1898    5.8867    2.1040 N   0  0  0  0  0  0  0  0  0  0  0  0
    1.4552   -3.9392    2.5507 C   0  0  0  0  0  0  0  0  0  0  0  0
    0.6962   -4.8705    2.6891 O   0  0  0  0  0  0  0  0  0  0  0  0
    2.7764   -4.1692    2.2751 N   0  0  0  0  0  0  0  0  0  0  0  0
    3.3536   -5.5150    2.1362 C   0  0  0  0  0  0  0  0  0  0  0  0
    4.8353   -5.5050    2.5044 C   0  0  0  0  0  0  0  0  0  0  0  0
    5.6007   -6.4381    2.4471 O   0  0  0  0  0  0  0  0  0  0  0  0
    5.2441   -4.2833    2.8997 O   0  0  0  0  0  0  0  0  0  0  0  0
    3.1340   -6.0742    0.7177 C   0  0  0  0  0  0  0  0  0  0  0  0
    3.7792   -5.2113   -0.3793 C   0  0  0  0  0  0  0  0  0  0  0  0
    3.5573   -5.7447   -1.7840 C   0  0  0  0  0  0  0  0  0  0  0  0
    2.9677   -6.7485   -2.1041 O   0  0  0  0  0  0  0  0  0  0  0  0
    4.1186   -4.9346   -2.7038 O   0  0  0  0  0  0  0  0  0  0  0  0
   -5.2611    6.0689    2.6707 N   0  0  0  0  0  0  0  0  0  0  0  0
   -2.2167    3.8742    1.9167 C   0  0  0  0  0  0  0  0  0  0  0  0
   -2.1580    5.2070    1.8454 C   0  0  0  0  0  0  0  0  0  0  0  0
   -0.2675    4.4966    1.3484 C   0  0  0  0  0  0  0  0  0  0  0  0
   -0.9844    5.5342    1.5058 N   0  0  0  0  0  0  0  0  0  0  0  0
   -1.0030    3.3985    1.5980 C   0  0  0  0  0  0  0  0  0  0  0  0
   -0.5216    1.9776    1.5190 C   0  0  0  0  0  0  0  0  0  0  0  0
   -0.1875    1.4213    2.9107 C   0  0  0  0  0  0  0  0  0  0  0  0
    0.2637   -0.0204    2.8166 C   0  0  0  0  0  0  0  0  0  0  0  0
   -0.2083   -2.3095    2.8684 C   0  0  0  0  0  0  0  0  0  0  0  0
   -0.6093   -1.0314    2.9552 C   0  0  0  0  0  0  0  0  0  0  0  0
    1.5494   -0.3313    2.5852 C   0  0  0  0  0  0  0  0  0  0  0  0
    1.9521   -1.6091    2.4964 C   0  0  0  0  0  0  0  0  0  0  0  0
    1.0808   -2.6282    2.6367 C   0  0  0  0  0  0  0  0  0  0  0  0
   -3.1436    6.9321    2.0477 H   0  0  0  0  0  0  0  0  0  0  0  0
    3.4011   -3.3781    2.1351 H   0  0  0  0  0  0  0  0  0  0  0  0
    2.8935   -6.2016    2.8881 H   0  0  0  0  0  0  0  0  0  0  0  0
    6.1881   -4.3257    3.1223 H   0  0  0  0  0  0  0  0  0  0  0  0
    3.5415   -7.1119    0.6615 H   0  0  0  0  0  0  0  0  0  0  0  0
    2.0370   -6.1493    0.5249 H   0  0  0  0  0  0  0  0  0  0  0  0
    3.3610   -4.1782   -0.3328 H   0  0  0  0  0  0  0  0  0  0  0  0
    4.8793   -5.1467   -0.2074 H   0  0  0  0  0  0  0  0  0  0  0  0
    3.9558   -5.3115   -3.5839 H   0  0  0  0  0  0  0  0  0  0  0  0
   -5.1669    7.1119    2.6008 H   0  0  0  0  0  0  0  0  0  0  0  0
   -6.1881    5.6599    2.9453 H   0  0  0  0  0  0  0  0  0  0  0  0
    0.7846    4.5715    1.0528 H   0  0  0  0  0  0  0  0  0  0  0  0
   -0.6528    6.5169    1.3734 H   0  0  0  0  0  0  0  0  0  0  0  0
   -1.2880    1.3485    1.0117 H   0  0  0  0  0  0  0  0  0  0  0  0
    0.3880    1.9391    0.8745 H   0  0  0  0  0  0  0  0  0  0  0  0
    0.6115    2.0391    3.3840 H   0  0  0  0  0  0  0  0  0  0  0  0
   -1.0723    1.4984    3.5839 H   0  0  0  0  0  0  0  0  0  0  0  0
   -0.9863   -3.0816    2.9921 H   0  0  0  0  0  0  0  0  0  0  0  0
   -1.6740   -0.8098    3.1396 H   0  0  0  0  0  0  0  0  0  0  0  0
    2.2882    0.4787    2.4624 H   0  0  0  0  0  0  0  0  0  0  0  0
    3.0259   -1.7599    2.3052 H   0  0  0  0  0  0  0  0  0  0  0  0
  1  3  1  0      
  1  4  2  0      
  1 19  1  0      
  3  2  2  0      
  2  5  1  0      
  2 18  1  0      
 20  5  1  0      
  5 32  1  0      
  6  7  2  0      
  6  8  1  0      
  6 31  1  0      
  9  8  1  0      
  8 33  1  0      
  9 10  1  0      
  9 13  1  0      
  9 34  1  0      
 10 11  2  0      
 10 12  1  0      
 12 35  1  0      
 13 14  1  0      
 13 36  1  0      
 13 37  1  0      
 14 15  1  0      
 14 38  1  0      
 14 39  1  0      
 15 16  2  0      
 15 17  1  0      
 17 40  1  0      
 18 41  1  0      
 18 42  1  0      
 19 20  2  0      
 19 23  1  0      
 20 22  1  0      
 22 21  1  0      
 23 21  2  0      
 21 43  1  0      
 22 44  1  0      
 23 24  1  0      
 24 25  1  0      
 24 45  1  0      
 24 46  1  0      
 25 26  1  0      
 25 47  1  0      
 25 48  1  0      
 26 28  1  0      
 26 29  2  0      
 28 27  2  0      
 27 31  1  0      
 27 49  1  0      
 28 50  1  0      
 30 29  1  0      
 29 51  1  0      
 31 30  2  0      
 30 52  1  0      
M  END
