
  Chem3D Core 15.010021516283D

 56 59  0  0  0  0  0  0  0  0999 V2000
   -1.2054    4.6248    2.6270 S   0  0  0  0  0  0  0  0  0  0  0  0
   -3.2620   -1.2249    0.4207 F   0  0  0  0  0  0  0  0  0  0  0  0
   -5.0231   -0.0771    0.0456 F   0  0  0  0  0  0  0  0  0  0  0  0
   -4.6882   -0.9261    1.9738 F   0  0  0  0  0  0  0  0  0  0  0  0
    4.4190   -5.9024   -3.7033 O   0  0  0  0  0  0  0  0  0  0  0  0
   -0.2231    1.7647    2.9672 N   0  0  0  0  0  0  0  0  0  0  0  0
    2.2869   -2.3244    1.3457 N   0  0  0  0  0  0  0  0  0  0  0  0
    3.1264   -4.3097   -0.6125 N   0  0  0  0  0  0  0  0  0  0  0  0
   -1.3896    1.8596    2.4239 C   0  0  0  0  0  0  0  0  0  0  0  0
   -1.9737    3.0530    2.1863 C   0  0  0  0  0  0  0  0  0  0  0  0
    0.6261    2.6612    3.3411 C   0  0  0  0  0  0  0  0  0  0  0  0
    0.3622    3.9836    3.2504 C   0  0  0  0  0  0  0  0  0  0  0  0
   -3.3676    0.9017    1.4359 C   0  0  0  0  0  0  0  0  0  0  0  0
   -2.1464    0.8172    1.9978 C   0  0  0  0  0  0  0  0  0  0  0  0
   -3.1788    3.1944    1.6096 C   0  0  0  0  0  0  0  0  0  0  0  0
   -4.0909   -0.3368    0.9489 C   0  0  0  0  0  0  0  0  0  0  0  0
   -3.8788    2.1222    1.2252 C   0  0  0  0  0  0  0  0  0  0  0  0
    0.2225    0.3411    3.2355 C   0  0  0  0  0  0  0  0  0  0  0  0
    1.8678    2.4110    3.8275 C   0  0  0  0  0  0  0  0  0  0  0  0
    1.2154    4.9547    3.6222 C   0  0  0  0  0  0  0  0  0  0  0  0
    2.7433    3.3560    4.2069 C   0  0  0  0  0  0  0  0  0  0  0  0
    2.4217    4.6493    4.1112 C   0  0  0  0  0  0  0  0  0  0  0  0
    0.9978   -0.2813    2.0601 C   0  0  0  0  0  0  0  0  0  0  0  0
    1.3659   -1.7529    2.3246 C   0  0  0  0  0  0  0  0  0  0  0  0
    2.6669   -3.6768    1.7304 C   0  0  0  0  0  0  0  0  0  0  0  0
    1.7412   -2.3504   -0.0027 C   0  0  0  0  0  0  0  0  0  0  0  0
    3.6743   -4.2755    0.7362 C   0  0  0  0  0  0  0  0  0  0  0  0
    2.7383   -2.9631   -1.0025 C   0  0  0  0  0  0  0  0  0  0  0  0
    4.0783   -4.9149   -1.5395 C   0  0  0  0  0  0  0  0  0  0  0  0
    3.5326   -5.0921   -2.9563 C   0  0  0  0  0  0  0  0  0  0  0  0
    4.0683   -6.0226   -4.5891 H   0  0  0  0  0  0  0  0  0  0  0  0
   -1.8074   -0.2248    2.0575 H   0  0  0  0  0  0  0  0  0  0  0  0
   -3.6193    4.1908    1.4315 H   0  0  0  0  0  0  0  0  0  0  0  0
   -4.8589    2.2577    0.7406 H   0  0  0  0  0  0  0  0  0  0  0  0
    0.7729    0.2313    4.1933 H   0  0  0  0  0  0  0  0  0  0  0  0
   -0.6071   -0.3167    3.5705 H   0  0  0  0  0  0  0  0  0  0  0  0
    2.2975    1.4046    3.9342 H   0  0  0  0  0  0  0  0  0  0  0  0
    0.9502    6.0226    3.5356 H   0  0  0  0  0  0  0  0  0  0  0  0
    3.7407    3.0767    4.5891 H   0  0  0  0  0  0  0  0  0  0  0  0
    3.1313    5.4363    4.4148 H   0  0  0  0  0  0  0  0  0  0  0  0
    0.3705   -0.1995    1.1434 H   0  0  0  0  0  0  0  0  0  0  0  0
    1.9274    0.3023    1.8652 H   0  0  0  0  0  0  0  0  0  0  0  0
    1.8453   -1.7926    3.3330 H   0  0  0  0  0  0  0  0  0  0  0  0
    0.4288   -2.3563    2.3854 H   0  0  0  0  0  0  0  0  0  0  0  0
    3.1368   -3.6707    2.7438 H   0  0  0  0  0  0  0  0  0  0  0  0
    1.7703   -4.3399    1.7874 H   0  0  0  0  0  0  0  0  0  0  0  0
    1.5166   -1.3164   -0.3556 H   0  0  0  0  0  0  0  0  0  0  0  0
    0.7854   -2.9267   -0.0296 H   0  0  0  0  0  0  0  0  0  0  0  0
    4.6173   -3.6783    0.7664 H   0  0  0  0  0  0  0  0  0  0  0  0
    3.9284   -5.3095    1.0739 H   0  0  0  0  0  0  0  0  0  0  0  0
    2.2428   -2.9731   -2.0019 H   0  0  0  0  0  0  0  0  0  0  0  0
    3.6352   -2.3029   -1.0823 H   0  0  0  0  0  0  0  0  0  0  0  0
    4.3502   -5.9320   -1.1642 H   0  0  0  0  0  0  0  0  0  0  0  0
    5.0231   -4.3222   -1.5838 H   0  0  0  0  0  0  0  0  0  0  0  0
    3.4454   -4.1285   -3.5050 H   0  0  0  0  0  0  0  0  0  0  0  0
    2.5442   -5.6040   -2.9484 H   0  0  0  0  0  0  0  0  0  0  0  0
 10  1  1  0      
  1 12  1  0      
  2 16  1  0      
  3 16  1  0      
  4 16  1  0      
  5 30  1  0      
  5 31  1  0      
  6  9  1  0      
  6 11  1  0      
  6 18  1  0      
  7 24  1  0      
  7 25  1  0      
  7 26  1  0      
 27  8  1  0      
  8 28  1  0      
  8 29  1  0      
  9 10  2  0      
  9 14  1  0      
 15 10  1  0      
 12 11  2  0      
 19 11  1  0      
 12 20  1  0      
 14 13  2  0      
 13 16  1  0      
 13 17  1  0      
 14 32  1  0      
 17 15  2  0      
 15 33  1  0      
 17 34  1  0      
 18 23  1  0      
 18 35  1  0      
 18 36  1  0      
 21 19  2  0      
 19 37  1  0      
 20 22  2  0      
 20 38  1  0      
 22 21  1  0      
 21 39  1  0      
 22 40  1  0      
 23 24  1  0      
 23 41  1  0      
 23 42  1  0      
 24 43  1  0      
 24 44  1  0      
 25 27  1  0      
 25 45  1  0      
 25 46  1  0      
 28 26  1  0      
 26 47  1  0      
 26 48  1  0      
 27 49  1  0      
 27 50  1  0      
 28 51  1  0      
 28 52  1  0      
 29 30  1  0      
 29 53  1  0      
 29 54  1  0      
 30 55  1  0      
 30 56  1  0      
M  END
