
  Chem3D Core 15.001211609013D

 44 47  0  0  0  0  0  0  0  0999 V2000
    4.5552   -7.6792   -0.8355 F   0  0  0  0  0  0  0  0  0  0  0  0
    3.2635   -7.5210   -1.0772 C   0  0  0  0  0  0  0  0  0  0  0  0
    2.6978   -6.2741   -0.4251 C   0  0  0  0  0  0  0  0  0  0  0  0
    3.4277   -5.4231    0.3163 C   0  0  0  0  0  0  0  0  0  0  0  0
    2.8375   -4.3444    0.8528 C   0  0  0  0  0  0  0  0  0  0  0  0
    1.5275   -4.1471    0.6320 C   0  0  0  0  0  0  0  0  0  0  0  0
    0.7828   -2.9601    1.1911 C   0  0  0  0  0  0  0  0  0  0  0  0
    0.3155   -2.1333    0.0623 N   0  0  0  0  0  0  0  0  0  0  0  0
   -0.3288   -1.0455    0.1951 C   0  0  0  0  0  0  0  0  0  0  0  0
   -0.6392   -0.5507    1.3215 N   0  0  0  0  0  0  0  0  0  0  0  0
   -1.2814    0.5378    1.3776 C   0  0  0  0  0  0  0  0  0  0  0  0
   -1.6829    1.2450    0.3083 C   0  0  0  0  0  0  0  0  0  0  0  0
   -2.4392    2.5441    0.4502 C   0  0  0  0  0  0  0  0  0  0  0  0
   -1.5205    3.7220    0.6047 C   0  0  0  0  0  0  0  0  0  0  0  0
   -0.1826    3.7412    0.5100 C   0  0  0  0  0  0  0  0  0  0  0  0
    0.2144    4.9309    0.7029 N   0  0  0  0  0  0  0  0  0  0  0  0
   -0.7467    5.7306    0.9214 C   0  0  0  0  0  0  0  0  0  0  0  0
   -0.7645    6.9732    1.1535 N   0  0  0  0  0  0  0  0  0  0  0  0
   -1.8924    7.5226    1.3365 C   0  0  0  0  0  0  0  0  0  0  0  0
   -3.0697    6.8706    1.2996 C   0  0  0  0  0  0  0  0  0  0  0  0
   -4.5552    7.7097    1.5614 Cl  0  0  0  0  0  0  0  0  0  0  0  0
   -3.0693    5.5501    1.0543 C   0  0  0  0  0  0  0  0  0  0  0  0
   -1.8678    4.9917    0.8650 C   0  0  0  0  0  0  0  0  0  0  0  0
   -1.3608    0.7371   -0.8918 C   0  0  0  0  0  0  0  0  0  0  0  0
   -0.6798   -0.4173   -0.9429 C   0  0  0  0  0  0  0  0  0  0  0  0
    0.9025   -5.0650   -0.1253 C   0  0  0  0  0  0  0  0  0  0  0  0
    1.4623   -6.0811   -0.6295 N   0  0  0  0  0  0  0  0  0  0  0  0
    3.1106   -7.4792   -2.3928 F   0  0  0  0  0  0  0  0  0  0  0  0
    2.6442   -8.6076   -0.6392 F   0  0  0  0  0  0  0  0  0  0  0  0
    4.5015   -5.5968    0.4893 H   0  0  0  0  0  0  0  0  0  0  0  0
    3.4235   -3.6368    1.4609 H   0  0  0  0  0  0  0  0  0  0  0  0
   -0.0864   -3.3229    1.7877 H   0  0  0  0  0  0  0  0  0  0  0  0
    1.4363   -2.3543    1.8598 H   0  0  0  0  0  0  0  0  0  0  0  0
    0.5233   -2.4608   -0.9134 H   0  0  0  0  0  0  0  0  0  0  0  0
   -1.5075    0.9055    2.3928 H   0  0  0  0  0  0  0  0  0  0  0  0
   -3.0889    2.7113   -0.4398 H   0  0  0  0  0  0  0  0  0  0  0  0
   -3.1141    2.4879    1.3355 H   0  0  0  0  0  0  0  0  0  0  0  0
    0.5240    2.9299    0.3064 H   0  0  0  0  0  0  0  0  0  0  0  0
    1.2184    5.2243    0.6842 H   0  0  0  0  0  0  0  0  0  0  0  0
   -1.8607    8.6076    1.5356 H   0  0  0  0  0  0  0  0  0  0  0  0
   -3.9952    4.9566    1.0095 H   0  0  0  0  0  0  0  0  0  0  0  0
   -1.6455    1.2588   -1.8196 H   0  0  0  0  0  0  0  0  0  0  0  0
   -0.4156   -0.8333   -1.9305 H   0  0  0  0  0  0  0  0  0  0  0  0
   -0.1735   -4.9553   -0.3422 H   0  0  0  0  0  0  0  0  0  0  0  0
  1  2  1  0      
  2  3  1  0      
  2 28  1  0      
  2 29  1  0      
  4  3  1  0      
  3 27  2  0      
  5  4  2  0      
  4 30  1  0      
  6  5  1  0      
  5 31  1  0      
  6  7  1  0      
  6 26  2  0      
  7  8  1  0      
  7 32  1  0      
  7 33  1  0      
  8  9  1  0      
  8 34  1  0      
  9 10  2  0      
 25  9  1  0      
 10 11  1  0      
 12 11  2  0      
 11 35  1  0      
 12 13  1  0      
 12 24  1  0      
 13 14  1  0      
 13 36  1  0      
 13 37  1  0      
 15 14  2  0      
 14 23  1  0      
 16 15  1  0      
 15 38  1  0      
 16 17  1  0      
 16 39  1  0      
 18 17  2  0      
 23 17  1  0      
 19 18  1  0      
 20 19  2  0      
 19 40  1  0      
 20 21  1  0      
 22 20  1  0      
 23 22  2  0      
 22 41  1  0      
 24 25  2  0      
 24 42  1  0      
 25 43  1  0      
 27 26  1  0      
 26 44  1  0      
M  END
