
  Chem3D Core 15.008171512283D

 59 63  0  0  0  0  0  0  0  0999 V2000
    2.6154   -1.4422    0.4179 C   0  0  0  0  0  0  0  0  0  0  0  0
    2.4340   -0.5037   -0.5219 C   0  0  0  0  0  0  0  0  0  0  0  0
    1.2423   -0.2682   -1.0799 C   0  0  0  0  0  0  0  0  0  0  0  0
    0.1788   -1.0033   -0.6926 C   0  0  0  0  0  0  0  0  0  0  0  0
    0.3631   -1.9408    0.2612 C   0  0  0  0  0  0  0  0  0  0  0  0
    1.5636   -2.1662    0.8249 C   0  0  0  0  0  0  0  0  0  0  0  0
   -0.9159   -0.7152   -1.2774 N   0  0  0  0  0  0  0  0  0  0  0  0
   -2.1228   -1.1225   -1.2325 C   0  0  0  0  0  0  0  0  0  0  0  0
   -2.9223   -0.5279   -2.0232 N   0  0  0  0  0  0  0  0  0  0  0  0
   -4.1552   -0.8125   -2.1035 C   0  0  0  0  0  0  0  0  0  0  0  0
   -4.6648   -1.7853   -1.3234 C   0  0  0  0  0  0  0  0  0  0  0  0
   -3.7723   -2.3744   -0.5124 C   0  0  0  0  0  0  0  0  0  0  0  0
   -2.5530   -2.0465   -0.4779 N   0  0  0  0  0  0  0  0  0  0  0  0
   -6.1223   -2.1956   -1.3535 C   0  0  0  0  0  0  0  0  0  0  0  0
   -6.4041   -3.1869   -0.5237 F   0  0  0  0  0  0  0  0  0  0  0  0
   -6.8978   -1.1711   -1.0323 F   0  0  0  0  0  0  0  0  0  0  0  0
   -6.4720   -2.5807   -2.5716 F   0  0  0  0  0  0  0  0  0  0  0  0
   -4.9522   -0.2188   -2.8951 N   0  0  0  0  0  0  0  0  0  0  0  0
   -4.5296    0.8555   -3.8044 C   0  0  0  0  0  0  0  0  0  0  0  0
   -5.5482    1.2002   -4.9203 C   0  0  0  0  0  0  0  0  0  0  0  0
   -4.3582    1.3621   -5.8959 C   0  0  0  0  0  0  0  0  0  0  0  0
   -3.5328    0.4799   -4.9291 C   0  0  0  0  0  0  0  0  0  0  0  0
    3.7435    0.2022   -0.6817 C   0  0  0  0  0  0  0  0  0  0  0  0
    4.8049   -0.6555   -1.3847 C   0  0  0  0  0  0  0  0  0  0  0  0
    5.2802   -1.5639   -0.2135 C   0  0  0  0  0  0  0  0  0  0  0  0
    4.0926   -1.5152    0.8606 C   0  0  0  0  0  0  0  0  0  0  0  0
    4.1960   -0.0575    0.6667 N   0  0  0  0  0  0  0  0  0  0  0  0
    4.5892    0.8635    1.5948 C   0  0  0  0  0  0  0  0  0  0  0  0
    4.9695    0.2919    2.9534 C   0  0  0  0  0  0  0  0  0  0  0  0
    5.3377    1.4059    3.8279 N   0  0  0  0  0  0  0  0  0  0  0  0
    5.7235    1.2281    5.1257 C   0  0  0  0  0  0  0  0  0  0  0  0
    6.0586    2.5149    5.8534 C   0  0  0  0  0  0  0  0  0  0  0  0
    5.7882    0.1386    5.6378 O   0  0  0  0  0  0  0  0  0  0  0  0
    4.6378    2.0493    1.3746 O   0  0  0  0  0  0  0  0  0  0  0  0
    1.1683    0.5359   -1.8303 H   0  0  0  0  0  0  0  0  0  0  0  0
   -0.4601   -2.5696    0.6288 H   0  0  0  0  0  0  0  0  0  0  0  0
    1.6947   -2.9389    1.5995 H   0  0  0  0  0  0  0  0  0  0  0  0
   -0.7953    0.0601   -1.9800 H   0  0  0  0  0  0  0  0  0  0  0  0
   -4.0671   -3.1858    0.1724 H   0  0  0  0  0  0  0  0  0  0  0  0
   -5.9607   -0.5113   -2.9030 H   0  0  0  0  0  0  0  0  0  0  0  0
   -4.2229    1.7616   -3.2333 H   0  0  0  0  0  0  0  0  0  0  0  0
   -6.1393    2.1242   -4.7399 H   0  0  0  0  0  0  0  0  0  0  0  0
   -6.1895    0.3296   -5.1901 H   0  0  0  0  0  0  0  0  0  0  0  0
   -4.5191    0.9235   -6.9047 H   0  0  0  0  0  0  0  0  0  0  0  0
   -3.9835    2.4107   -5.9363 H   0  0  0  0  0  0  0  0  0  0  0  0
   -2.4893    0.8221   -4.7566 H   0  0  0  0  0  0  0  0  0  0  0  0
   -3.5898   -0.5997   -5.1990 H   0  0  0  0  0  0  0  0  0  0  0  0
    3.6836    1.2694   -0.9748 H   0  0  0  0  0  0  0  0  0  0  0  0
    4.3558   -1.2310   -2.2262 H   0  0  0  0  0  0  0  0  0  0  0  0
    5.6498   -0.0395   -1.7713 H   0  0  0  0  0  0  0  0  0  0  0  0
    5.6262   -2.5535   -0.6099 H   0  0  0  0  0  0  0  0  0  0  0  0
    6.2132   -1.1592    0.2548 H   0  0  0  0  0  0  0  0  0  0  0  0
    3.8793   -2.4381    0.2468 H   0  0  0  0  0  0  0  0  0  0  0  0
    4.0954   -0.2521    3.3804 H   0  0  0  0  0  0  0  0  0  0  0  0
    5.8357   -0.3988    2.8336 H   0  0  0  0  0  0  0  0  0  0  0  0
    5.2958    2.3449    3.4280 H   0  0  0  0  0  0  0  0  0  0  0  0
    6.8978    3.0381    5.3413 H   0  0  0  0  0  0  0  0  0  0  0  0
    5.1709    3.1869    5.8732 H   0  0  0  0  0  0  0  0  0  0  0  0
    6.3650    2.3134    6.9047 H   0  0  0  0  0  0  0  0  0  0  0  0
  1  2  2  0      
  1  6  1  0      
  1 26  1  0      
  2  3  1  0      
  2 23  1  0      
  3  4  2  0      
  3 35  1  0      
  4  5  1  0      
  4  7  1  0      
  5  6  2  0      
  5 36  1  0      
  6 37  1  0      
  7  8  1  0      
  7 38  1  0      
  9  8  2  0      
  8 13  1  0      
 10  9  1  0      
 11 10  2  0      
 10 18  1  0      
 12 11  1  0      
 11 14  1  0      
 12 13  2  0      
 12 39  1  0      
 14 15  1  0      
 14 16  1  0      
 14 17  1  0      
 18 19  1  0      
 18 40  1  0      
 19 20  1  0      
 19 22  1  0      
 19 41  1  0      
 20 21  1  0      
 20 42  1  0      
 20 43  1  0      
 21 22  1  0      
 21 44  1  0      
 21 45  1  0      
 22 46  1  0      
 22 47  1  0      
 23 24  1  0      
 23 27  1  0      
 23 48  1  0      
 24 25  1  0      
 24 49  1  0      
 24 50  1  0      
 25 26  1  0      
 25 51  1  0      
 25 52  1  0      
 26 27  1  0      
 26 53  1  0      
 27 28  1  0      
 28 29  1  0      
 28 34  2  0      
 29 30  1  0      
 29 54  1  0      
 29 55  1  0      
 30 31  1  0      
 30 56  1  0      
 31 32  1  0      
 31 33  2  0      
 32 57  1  0      
 32 58  1  0      
 32 59  1  0      
M  END
