
  Chem3D Core 14.008171513503D

 55 58  0  0  0  0  0  0  0  0999 V2000
   -2.9479   -5.7747    3.4007 C   0  0  0  0  0  0  0  0  0  0  0  0
   -2.5547   -4.2176    2.6783 S   0  0  0  0  0  0  0  0  0  0  0  0
   -3.6729   -3.5078    2.0557 O   0  0  0  0  0  0  0  0  0  0  0  0
   -1.6990   -4.3630    1.2058 N   0  0  0  0  0  0  0  0  0  0  0  0
   -2.3351   -4.7224    0.1479 C   0  0  0  0  0  0  0  0  0  0  0  0
   -3.0074   -5.7907    0.3322 N   0  0  0  0  0  0  0  0  0  0  0  0
   -3.6913   -6.3403   -0.5746 C   0  0  0  0  0  0  0  0  0  0  0  0
   -3.7790   -5.8519   -1.8144 C   0  0  0  0  0  0  0  0  0  0  0  0
   -3.1043   -4.7220   -2.0500 C   0  0  0  0  0  0  0  0  0  0  0  0
   -2.3720   -4.1361   -1.0798 C   0  0  0  0  0  0  0  0  0  0  0  0
   -1.7481   -2.8017   -1.4585 C   0  0  0  0  0  0  0  0  0  0  0  0
   -2.2828   -1.7496   -0.5682 N   0  0  0  0  0  0  0  0  0  0  0  0
   -1.8381   -0.5589   -0.5309 C   0  0  0  0  0  0  0  0  0  0  0  0
   -0.8744   -0.1774   -1.2621 N   0  0  0  0  0  0  0  0  0  0  0  0
   -0.4097    1.0060   -1.2441 C   0  0  0  0  0  0  0  0  0  0  0  0
    0.5624    1.2205   -2.0400 N   0  0  0  0  0  0  0  0  0  0  0  0
    1.3031    2.2121   -2.3427 C   0  0  0  0  0  0  0  0  0  0  0  0
    1.2292    3.4531   -1.8211 C   0  0  0  0  0  0  0  0  0  0  0  0
    2.0806    4.3980   -2.2412 C   0  0  0  0  0  0  0  0  0  0  0  0
    3.0052    4.1342   -3.1700 C   0  0  0  0  0  0  0  0  0  0  0  0
    3.6932    5.1714   -3.4097 N   0  0  0  0  0  0  0  0  0  0  0  0
    3.3411    6.1776   -2.7249 C   0  0  0  0  0  0  0  0  0  0  0  0
    2.1756    5.8304   -1.8022 C   0  0  0  0  0  0  0  0  0  0  0  0
    3.8658    7.2644   -2.8008 O   0  0  0  0  0  0  0  0  0  0  0  0
    3.1019    2.9131   -3.7040 C   0  0  0  0  0  0  0  0  0  0  0  0
    2.2457    1.9676   -3.2800 C   0  0  0  0  0  0  0  0  0  0  0  0
   -0.9206    1.8707   -0.4705 N   0  0  0  0  0  0  0  0  0  0  0  0
   -1.8841    1.5512    0.2803 C   0  0  0  0  0  0  0  0  0  0  0  0
   -2.4070    0.3150    0.3233 C   0  0  0  0  0  0  0  0  0  0  0  0
   -3.5964    0.0000    1.2092 C   0  0  0  0  0  0  0  0  0  0  0  0
   -4.2433    1.0915    1.5869 F   0  0  0  0  0  0  0  0  0  0  0  0
   -4.4749   -0.7901    0.6122 F   0  0  0  0  0  0  0  0  0  0  0  0
   -3.1736   -0.6029    2.3094 F   0  0  0  0  0  0  0  0  0  0  0  0
   -0.4634   -3.5535    1.0327 C   0  0  0  0  0  0  0  0  0  0  0  0
   -1.5459   -3.4572    3.4112 O   0  0  0  0  0  0  0  0  0  0  0  0
   -2.0682   -6.4542    3.3457 H   0  0  0  0  0  0  0  0  0  0  0  0
   -3.2212   -5.6294    4.4697 H   0  0  0  0  0  0  0  0  0  0  0  0
   -3.8119   -6.2499    2.8863 H   0  0  0  0  0  0  0  0  0  0  0  0
   -4.2275   -7.2644   -0.3005 H   0  0  0  0  0  0  0  0  0  0  0  0
   -4.3858   -6.3443   -2.5906 H   0  0  0  0  0  0  0  0  0  0  0  0
   -3.1857   -4.2809   -3.0572 H   0  0  0  0  0  0  0  0  0  0  0  0
   -0.6402   -2.8396   -1.4820 H   0  0  0  0  0  0  0  0  0  0  0  0
   -2.0288   -2.5047   -2.4958 H   0  0  0  0  0  0  0  0  0  0  0  0
   -3.0736   -2.0106    0.0718 H   0  0  0  0  0  0  0  0  0  0  0  0
    0.8156    0.3554   -2.5847 H   0  0  0  0  0  0  0  0  0  0  0  0
    0.5023    3.7550   -1.0562 H   0  0  0  0  0  0  0  0  0  0  0  0
    4.4749    5.1992   -4.1033 H   0  0  0  0  0  0  0  0  0  0  0  0
    1.2639    6.4142   -2.0589 H   0  0  0  0  0  0  0  0  0  0  0  0
    2.4600    5.9279   -0.7309 H   0  0  0  0  0  0  0  0  0  0  0  0
    3.8634    2.6932   -4.4697 H   0  0  0  0  0  0  0  0  0  0  0  0
    2.3425    0.9653   -3.7342 H   0  0  0  0  0  0  0  0  0  0  0  0
   -2.2776    2.3615    0.9154 H   0  0  0  0  0  0  0  0  0  0  0  0
    0.2640   -3.8028    1.8384 H   0  0  0  0  0  0  0  0  0  0  0  0
    0.1124   -3.8560    0.1323 H   0  0  0  0  0  0  0  0  0  0  0  0
   -0.6369   -2.4570    1.0777 H   0  0  0  0  0  0  0  0  0  0  0  0
  1  2  1  0      
  1 36  1  0      
  1 37  1  0      
  1 38  1  0      
  2  3  2  0      
  2  4  1  0      
  2 35  2  0      
  4  5  1  0      
  4 34  1  0      
  5  6  2  0      
 10  5  1  0      
  6  7  1  0      
  8  7  2  0      
  7 39  1  0      
  8  9  1  0      
  8 40  1  0      
  9 10  2  0      
  9 41  1  0      
 10 11  1  0      
 11 12  1  0      
 11 42  1  0      
 11 43  1  0      
 12 13  1  0      
 12 44  1  0      
 13 14  1  0      
 29 13  2  0      
 14 15  2  0      
 15 16  1  0      
 15 27  1  0      
 16 17  1  0      
 16 45  1  0      
 17 18  2  0      
 26 17  1  0      
 18 19  1  0      
 18 46  1  0      
 20 19  2  0      
 23 19  1  0      
 21 20  1  0      
 20 25  1  0      
 22 21  1  0      
 21 47  1  0      
 23 22  1  0      
 22 24  2  0      
 23 48  1  0      
 23 49  1  0      
 25 26  2  0      
 25 50  1  0      
 26 51  1  0      
 28 27  2  0      
 28 29  1  0      
 28 52  1  0      
 29 30  1  0      
 30 31  1  0      
 30 32  1  0      
 30 33  1  0      
 34 53  1  0      
 34 54  1  0      
 34 55  1  0      
M  END
