
  Chem3D Core 15.011061513423D

  0  0  0     0  0              0 V3000
M  V30 BEGIN CTAB
M  V30 COUNTS 67 70 0 0 0
M  V30 BEGIN ATOM
M  V30 1 C 1.079124 -5.287190 1.474491 0
M  V30 2 C 1.812472 -4.976669 0.153480 0
M  V30 3 C 1.760050 -3.464385 -0.133044 0
M  V30 4 C 2.694426 -3.047479 -1.244953 0
M  V30 5 C 3.736197 -3.829195 -1.590796 0
M  V30 6 C 4.101835 -4.969950 -0.949649 0
M  V30 7 O 5.041870 -5.662838 -1.265851 0
M  V30 8 C 3.287690 -5.381101 0.267409 0
M  V30 9 C 4.283436 -3.237081 -2.660711 0
M  V30 10 N 3.598535 -2.197670 -2.872932 0
M  V30 11 N 2.682902 -2.041723 -2.046695 0
M  V30 12 C 1.932047 -0.998244 -2.126131 0
M  V30 13 C 0.980756 -0.646161 -1.236946 0
M  V30 14 C 0.184263 0.446827 -1.301450 0
M  V30 15 C 0.324526 1.252174 -2.377617 0
M  V30 16 C 1.301151 0.971492 -3.258184 0
M  V30 17 C 2.083437 -0.108757 -3.129942 0
M  V30 18 C -0.469604 2.312587 -2.684754 0
M  V30 19 O -0.182104 3.272294 -3.356665 0
M  V30 20 N -1.783750 2.085733 -2.443375 0
M  V30 21 N -0.554004 0.555973 -0.262602 0
M  V30 22 C -1.415987 1.640793 0.272982 0
M  V30 23 C -0.919685 1.963329 1.695516 0
M  V30 24 C -1.786971 3.048485 2.351263 0
M  V30 25 C -3.266317 2.645839 2.397041 0
M  V30 26 C -3.755803 2.294465 0.991204 0
M  V30 27 C -2.884159 1.196350 0.358525 0
M  V30 28 O -3.965077 3.628018 3.116960 0
M  V30 29 C -5.034109 4.347960 2.675537 0
M  V30 30 O -5.595593 4.277368 1.607274 0
M  V30 31 C -5.459780 5.309553 3.773080 0
M  V30 32 N -4.336107 6.185666 4.131993 0
M  V30 33 C 5.436538 -3.506603 -3.607155 0
M  V30 34 F 6.315015 -2.517287 -3.528341 0
M  V30 35 F 6.098504 -4.631054 -3.421060 0
M  V30 36 F 4.990028 -3.527322 -4.855259 0
M  V30 37 C 1.133070 -5.771099 -0.983766 0
M  V30 38 H 1.540662 -4.752112 2.334879 0
M  V30 39 H 0.010045 -4.979682 1.424553 0
M  V30 40 H 1.107436 -6.376030 1.705819 0
M  V30 41 H 0.699439 -3.266002 -0.409366 0
M  V30 42 H 2.032505 -2.889067 0.782508 0
M  V30 43 H 3.757231 -4.896069 1.155304 0
M  V30 44 H 3.360890 -6.483414 0.418121 0
M  V30 45 H 0.878565 -1.268516 -0.342032 0
M  V30 46 H 1.464194 1.600192 -4.151717 0
M  V30 47 H 2.831625 -0.237294 -3.930689 0
M  V30 48 H -2.446636 2.785809 -2.740694 0
M  V30 49 H -2.064667 1.219570 -2.007954 0
M  V30 50 H -0.447269 -0.243901 0.412411 0
M  V30 51 H -1.288629 2.582132 -0.302317 0
M  V30 52 H -0.944966 1.041362 2.323752 0
M  V30 53 H 0.143683 2.302151 1.658756 0
M  V30 54 H -1.412339 3.243496 3.385146 0
M  V30 55 H -1.683120 4.002308 1.781085 0
M  V30 56 H -3.336609 1.712069 3.011087 0
M  V30 57 H -3.700428 3.187085 0.323815 0
M  V30 58 H -4.806060 1.916778 1.027226 0
M  V30 59 H -3.280712 0.938205 -0.650012 0
M  V30 60 H -2.954199 0.264300 0.967958 0
M  V30 61 H -6.315015 5.933850 3.425888 0
M  V30 62 H -5.790447 4.736067 4.668941 0
M  V30 63 H -4.621439 6.867979 4.855259 0
M  V30 64 H -3.570668 5.636765 4.561522 0
M  V30 65 H 0.052567 -5.515991 -1.068401 0
M  V30 66 H 1.595760 -5.569648 -1.975152 0
M  V30 67 H 1.199729 -6.867979 -0.804289 0
M  V30 END ATOM
M  V30 BEGIN BOND
M  V30 1 1 1 2
M  V30 2 1 1 38
M  V30 3 1 1 39
M  V30 4 1 1 40
M  V30 5 1 3 2
M  V30 6 1 2 8
M  V30 7 1 2 37
M  V30 8 1 4 3
M  V30 9 1 3 41
M  V30 10 1 3 42
M  V30 11 2 4 5
M  V30 12 1 11 4
M  V30 13 1 6 5
M  V30 14 1 9 5
M  V30 15 2 6 7
M  V30 16 1 8 6
M  V30 17 1 8 43
M  V30 18 1 8 44
M  V30 19 2 9 10
M  V30 20 1 9 33
M  V30 21 1 10 11
M  V30 22 1 11 12
M  V30 23 1 12 13
M  V30 24 2 12 17
M  V30 25 2 13 14
M  V30 26 1 13 45
M  V30 27 1 14 15
M  V30 28 1 14 21
M  V30 29 2 15 16
M  V30 30 1 15 18
M  V30 31 1 16 17
M  V30 32 1 16 46
M  V30 33 1 17 47
M  V30 34 2 18 19
M  V30 35 1 18 20
M  V30 36 1 20 48
M  V30 37 1 20 49
M  V30 38 1 21 22
M  V30 39 1 21 50
M  V30 40 1 22 23
M  V30 41 1 22 27
M  V30 42 1 22 51
M  V30 43 1 23 24
M  V30 44 1 23 52
M  V30 45 1 23 53
M  V30 46 1 24 25
M  V30 47 1 24 54
M  V30 48 1 24 55
M  V30 49 1 25 26
M  V30 50 1 25 28
M  V30 51 1 25 56
M  V30 52 1 26 27
M  V30 53 1 26 57
M  V30 54 1 26 58
M  V30 55 1 27 59
M  V30 56 1 27 60
M  V30 57 1 28 29
M  V30 58 2 29 30
M  V30 59 1 29 31
M  V30 60 1 31 32
M  V30 61 1 31 61
M  V30 62 1 31 62
M  V30 63 1 32 63
M  V30 64 1 32 64
M  V30 65 1 33 34
M  V30 66 1 33 35
M  V30 67 1 33 36
M  V30 68 1 37 65
M  V30 69 1 37 66
M  V30 70 1 37 67
M  V30 END BOND
M  V30 END CTAB
M  END
