
  Chem3D Core 15.003181609323D

 56 59  0  0  0  0  0  0  0  0999 V2000
    2.1323   -4.9078    0.0823 O   0  0  0  0  0  0  0  0  0  0  0  0
    1.2141   -4.2249   -0.2885 C   0  0  0  0  0  0  0  0  0  0  0  0
    0.0015   -4.4776    0.2828 N   0  0  0  0  0  0  0  0  0  0  0  0
   -1.2691   -4.3672   -0.1524 C   0  0  0  0  0  0  0  0  0  0  0  0
   -2.2555   -4.6276    0.7264 C   0  0  0  0  0  0  0  0  0  0  0  0
   -3.4926   -4.5703    0.4611 N   0  0  0  0  0  0  0  0  0  0  0  0
   -3.8289   -4.2514   -0.7163 C   0  0  0  0  0  0  0  0  0  0  0  0
   -2.9473   -3.9809   -1.6913 C   0  0  0  0  0  0  0  0  0  0  0  0
   -1.6383   -4.0485   -1.4043 C   0  0  0  0  0  0  0  0  0  0  0  0
    1.4196   -3.2373   -1.2267 N   0  0  0  0  0  0  0  0  0  0  0  0
    2.5999   -3.2070   -2.0852 C   0  0  0  0  0  0  0  0  0  0  0  0
    3.6136   -2.2012   -1.5202 C   0  0  0  0  0  0  0  0  0  0  0  0
    2.9890   -0.7978   -1.3908 C   0  0  0  0  0  0  0  0  0  0  0  0
    3.9928    0.1879   -0.7514 C   0  0  0  0  0  0  0  0  0  0  0  0
    3.3887    1.5658   -0.5782 C   0  0  0  0  0  0  0  0  0  0  0  0
    3.5139    2.5159   -1.5196 C   0  0  0  0  0  0  0  0  0  0  0  0
    2.9152    3.7058   -1.3597 C   0  0  0  0  0  0  0  0  0  0  0  0
    2.1622    3.9423   -0.2745 C   0  0  0  0  0  0  0  0  0  0  0  0
    2.0132    3.0141    0.6882 C   0  0  0  0  0  0  0  0  0  0  0  0
    1.2051    3.2191    1.7765 O   0  0  0  0  0  0  0  0  0  0  0  0
    0.1383    2.3506    1.7642 C   0  0  0  0  0  0  0  0  0  0  0  0
    0.2132    1.3123    2.4908 N   0  0  0  0  0  0  0  0  0  0  0  0
   -0.7098    0.4473    2.4613 C   0  0  0  0  0  0  0  0  0  0  0  0
   -1.8107    0.5230    1.6931 C   0  0  0  0  0  0  0  0  0  0  0  0
   -2.8902   -0.5320    1.7210 C   0  0  0  0  0  0  0  0  0  0  0  0
   -4.0977   -0.0289    1.5190 F   0  0  0  0  0  0  0  0  0  0  0  0
   -2.6597   -1.4007    0.7479 F   0  0  0  0  0  0  0  0  0  0  0  0
   -2.9130   -1.2124    2.8558 F   0  0  0  0  0  0  0  0  0  0  0  0
   -1.9324    1.6426    0.9610 C   0  0  0  0  0  0  0  0  0  0  0  0
   -0.9425    2.5469    0.9866 C   0  0  0  0  0  0  0  0  0  0  0  0
    2.6668    1.8499    0.5188 C   0  0  0  0  0  0  0  0  0  0  0  0
    1.6602   -0.8943   -0.6139 C   0  0  0  0  0  0  0  0  0  0  0  0
    0.7184   -1.9577   -1.1973 C   0  0  0  0  0  0  0  0  0  0  0  0
    0.0348   -4.8660    1.2136 H   0  0  0  0  0  0  0  0  0  0  0  0
   -2.0116   -4.9095    1.7655 H   0  0  0  0  0  0  0  0  0  0  0  0
   -4.9117   -4.2089   -0.9223 H   0  0  0  0  0  0  0  0  0  0  0  0
   -3.2907   -3.7196   -2.7055 H   0  0  0  0  0  0  0  0  0  0  0  0
   -0.9038   -3.8589   -2.2014 H   0  0  0  0  0  0  0  0  0  0  0  0
    3.0573   -4.2172   -2.1913 H   0  0  0  0  0  0  0  0  0  0  0  0
    2.3015   -2.9034   -3.1159 H   0  0  0  0  0  0  0  0  0  0  0  0
    3.9530   -2.5530   -0.5172 H   0  0  0  0  0  0  0  0  0  0  0  0
    4.5133   -2.1602   -2.1789 H   0  0  0  0  0  0  0  0  0  0  0  0
    2.7511   -0.4289   -2.4207 H   0  0  0  0  0  0  0  0  0  0  0  0
    4.3257   -0.2014    0.2388 H   0  0  0  0  0  0  0  0  0  0  0  0
    4.9117    0.2530   -1.3796 H   0  0  0  0  0  0  0  0  0  0  0  0
    4.0932    2.3154   -2.4356 H   0  0  0  0  0  0  0  0  0  0  0  0
    3.0121    4.4787   -2.1406 H   0  0  0  0  0  0  0  0  0  0  0  0
    1.6409    4.9095   -0.1782 H   0  0  0  0  0  0  0  0  0  0  0  0
   -0.5519   -0.4261    3.1159 H   0  0  0  0  0  0  0  0  0  0  0  0
   -2.8129    1.8086    0.3201 H   0  0  0  0  0  0  0  0  0  0  0  0
   -1.0073    3.4481    0.3547 H   0  0  0  0  0  0  0  0  0  0  0  0
    2.5653    1.0730    1.2938 H   0  0  0  0  0  0  0  0  0  0  0  0
    1.8747   -1.1511    0.4510 H   0  0  0  0  0  0  0  0  0  0  0  0
    1.1218    0.0827   -0.6287 H   0  0  0  0  0  0  0  0  0  0  0  0
   -0.1981   -1.9911   -0.5662 H   0  0  0  0  0  0  0  0  0  0  0  0
    0.4009   -1.6698   -2.2265 H   0  0  0  0  0  0  0  0  0  0  0  0
  1  2  2  0      
  2  3  1  0      
  2 10  1  0      
  3  4  1  0      
  3 34  1  0      
  4  5  1  0      
  9  4  2  0      
  5  6  2  0      
  5 35  1  0      
  6  7  1  0      
  8  7  2  0      
  7 36  1  0      
  8  9  1  0      
  8 37  1  0      
  9 38  1  0      
 10 11  1  0      
 10 33  1  0      
 11 12  1  0      
 11 39  1  0      
 11 40  1  0      
 12 13  1  0      
 12 41  1  0      
 12 42  1  0      
 13 14  1  0      
 13 32  1  0      
 13 43  1  0      
 14 15  1  0      
 14 44  1  0      
 14 45  1  0      
 15 16  1  0      
 15 31  2  0      
 16 17  2  0      
 16 46  1  0      
 17 18  1  0      
 17 47  1  0      
 18 19  2  0      
 18 48  1  0      
 19 20  1  0      
 19 31  1  0      
 20 21  1  0      
 21 22  2  0      
 30 21  1  0      
 22 23  1  0      
 24 23  2  0      
 23 49  1  0      
 24 25  1  0      
 24 29  1  0      
 25 26  1  0      
 25 27  1  0      
 25 28  1  0      
 29 30  2  0      
 29 50  1  0      
 30 51  1  0      
 31 52  1  0      
 32 33  1  0      
 32 53  1  0      
 32 54  1  0      
 33 55  1  0      
 33 56  1  0      
M  END
