
  Chem3D Core 15.008171512283D

 56 59  0  0  0  0  0  0  0  0999 V2000
   -1.0092   -3.8503   -1.8115 N   0  0  0  0  0  0  0  0  0  0  0  0
   -0.3657   -2.7582   -1.7215 C   0  0  0  0  0  0  0  0  0  0  0  0
   -0.6488   -1.9385   -0.7964 N   0  0  0  0  0  0  0  0  0  0  0  0
   -1.5612   -2.1393    0.0594 C   0  0  0  0  0  0  0  0  0  0  0  0
   -2.2792   -3.2771    0.0079 C   0  0  0  0  0  0  0  0  0  0  0  0
   -1.9318   -4.1090   -0.9873 C   0  0  0  0  0  0  0  0  0  0  0  0
   -3.3910   -3.5956    0.9848 C   0  0  0  0  0  0  0  0  0  0  0  0
   -1.8293   -1.2972    0.9734 N   0  0  0  0  0  0  0  0  0  0  0  0
    0.5403   -2.5615   -2.5963 N   0  0  0  0  0  0  0  0  0  0  0  0
    1.3704   -1.6308   -2.8615 C   0  0  0  0  0  0  0  0  0  0  0  0
    2.1775   -1.8552   -3.9223 C   0  0  0  0  0  0  0  0  0  0  0  0
    3.1019   -0.9661   -4.3257 C   0  0  0  0  0  0  0  0  0  0  0  0
    1.5077   -0.4662   -2.1954 C   0  0  0  0  0  0  0  0  0  0  0  0
   -1.0968   -0.0187    1.1276 C   0  0  0  0  0  0  0  0  0  0  0  0
   -1.6704    0.8241    2.2542 C   0  0  0  0  0  0  0  0  0  0  0  0
   -1.7966    2.1759    2.2102 C   0  0  0  0  0  0  0  0  0  0  0  0
   -2.4641    2.7643    3.2291 C   0  0  0  0  0  0  0  0  0  0  0  0
   -2.9575    2.0852    4.2736 C   0  0  0  0  0  0  0  0  0  0  0  0
   -2.7796    0.7619    4.3328 C   0  0  0  0  0  0  0  0  0  0  0  0
   -2.1433    0.1528    3.3245 C   0  0  0  0  0  0  0  0  0  0  0  0
   -4.3114   -2.6432    0.9648 F   0  0  0  0  0  0  0  0  0  0  0  0
   -2.9152   -3.6472    2.2198 F   0  0  0  0  0  0  0  0  0  0  0  0
   -3.9949   -4.7462    0.7365 F   0  0  0  0  0  0  0  0  0  0  0  0
   -1.3566    2.9981    1.3299 N   0  0  0  0  0  0  0  0  0  0  0  0
   -0.1031    2.6434    0.6023 C   0  0  0  0  0  0  0  0  0  0  0  0
   -2.4303    3.9562    0.4369 S   0  0  0  0  0  0  0  0  0  0  0  0
   -4.0185    3.0401    0.1809 C   0  0  0  0  0  0  0  0  0  0  0  0
   -3.0922    5.0723    1.1038 O   0  0  0  0  0  0  0  0  0  0  0  0
   -2.1735    4.0017   -1.0010 O   0  0  0  0  0  0  0  0  0  0  0  0
    2.4251    0.4234   -2.5954 C   0  0  0  0  0  0  0  0  0  0  0  0
    3.2147    0.1787   -3.6457 C   0  0  0  0  0  0  0  0  0  0  0  0
    4.0020    1.1538   -3.8354 N   0  0  0  0  0  0  0  0  0  0  0  0
    3.8486    2.0945   -3.0002 C   0  0  0  0  0  0  0  0  0  0  0  0
    2.7367    1.7684   -2.0061 C   0  0  0  0  0  0  0  0  0  0  0  0
    4.5030    3.1112   -2.9962 O   0  0  0  0  0  0  0  0  0  0  0  0
   -2.4464   -5.0723   -1.1333 H   0  0  0  0  0  0  0  0  0  0  0  0
   -2.6097   -1.5183    1.6387 H   0  0  0  0  0  0  0  0  0  0  0  0
    0.6162   -3.3697   -3.2668 H   0  0  0  0  0  0  0  0  0  0  0  0
    2.1003   -2.7938   -4.4997 H   0  0  0  0  0  0  0  0  0  0  0  0
    3.7507   -1.1701   -5.1928 H   0  0  0  0  0  0  0  0  0  0  0  0
    0.9066   -0.1749   -1.3252 H   0  0  0  0  0  0  0  0  0  0  0  0
   -0.0189   -0.2255    1.3216 H   0  0  0  0  0  0  0  0  0  0  0  0
   -1.2427    0.5029    0.1565 H   0  0  0  0  0  0  0  0  0  0  0  0
   -2.5961    3.8591    3.2736 H   0  0  0  0  0  0  0  0  0  0  0  0
   -3.4773    2.6107    5.0923 H   0  0  0  0  0  0  0  0  0  0  0  0
   -3.1583    0.1850    5.1928 H   0  0  0  0  0  0  0  0  0  0  0  0
   -2.0261   -0.9402    3.4047 H   0  0  0  0  0  0  0  0  0  0  0  0
    0.5707    1.9822    1.1899 H   0  0  0  0  0  0  0  0  0  0  0  0
   -0.2667    2.2415   -0.4218 H   0  0  0  0  0  0  0  0  0  0  0  0
    0.4947    3.5748    0.4695 H   0  0  0  0  0  0  0  0  0  0  0  0
   -4.7113    3.6155   -0.4745 H   0  0  0  0  0  0  0  0  0  0  0  0
   -3.8074    2.0520   -0.2882 H   0  0  0  0  0  0  0  0  0  0  0  0
   -4.5196    2.8582    1.1584 H   0  0  0  0  0  0  0  0  0  0  0  0
    4.7113    1.1834   -4.6028 H   0  0  0  0  0  0  0  0  0  0  0  0
    1.8854    2.4789   -2.0982 H   0  0  0  0  0  0  0  0  0  0  0  0
    3.1232    1.6972   -0.9652 H   0  0  0  0  0  0  0  0  0  0  0  0
  1  2  2  0      
  6  1  1  0      
  2  3  1  0      
  2  9  1  0      
  4  3  2  0      
  4  5  1  0      
  4  8  1  0      
  5  6  2  0      
  5  7  1  0      
  6 36  1  0      
  7 21  1  0      
  7 22  1  0      
  7 23  1  0      
  8 14  1  0      
  8 37  1  0      
  9 10  1  0      
  9 38  1  0      
 11 10  1  0      
 10 13  2  0      
 12 11  2  0      
 11 39  1  0      
 31 12  1  0      
 12 40  1  0      
 13 30  1  0      
 13 41  1  0      
 14 15  1  0      
 14 42  1  0      
 14 43  1  0      
 15 16  1  0      
 15 20  2  0      
 16 17  2  0      
 16 24  1  0      
 17 18  1  0      
 17 44  1  0      
 18 19  2  0      
 18 45  1  0      
 19 20  1  0      
 19 46  1  0      
 20 47  1  0      
 24 25  1  0      
 24 26  1  0      
 25 48  1  0      
 25 49  1  0      
 25 50  1  0      
 26 27  1  0      
 26 28  2  0      
 26 29  2  0      
 27 51  1  0      
 27 52  1  0      
 27 53  1  0      
 31 30  2  0      
 34 30  1  0      
 32 31  1  0      
 33 32  1  0      
 32 54  1  0      
 34 33  1  0      
 33 35  2  0      
 34 55  1  0      
 34 56  1  0      
M  END
