
  Chem3D Core 15.008171512283D

 54 57  0  0  0  0  0  0  0  0999 V2000
   -2.6548    1.5481    3.0482 S   0  0  0  0  0  0  0  0  0  0  0  0
   -4.1009   -4.0858   -3.6309 F   0  0  0  0  0  0  0  0  0  0  0  0
   -5.0984   -2.2471   -4.0725 F   0  0  0  0  0  0  0  0  0  0  0  0
   -5.5638   -3.3044   -2.2825 F   0  0  0  0  0  0  0  0  0  0  0  0
    6.3550   -0.4592    1.2846 O   0  0  0  0  0  0  0  0  0  0  0  0
   -3.6858    1.4034    4.0725 O   0  0  0  0  0  0  0  0  0  0  0  0
   -1.2835    1.9076    3.4031 O   0  0  0  0  0  0  0  0  0  0  0  0
    4.2239    0.1776    1.1400 N   0  0  0  0  0  0  0  0  0  0  0  0
   -0.8599   -0.0957   -0.4158 N   0  0  0  0  0  0  0  0  0  0  0  0
   -4.9916   -0.5754   -1.7705 N   0  0  0  0  0  0  0  0  0  0  0  0
   -2.8412   -0.4188   -1.1308 N   0  0  0  0  0  0  0  0  0  0  0  0
   -1.3527   -1.9425   -1.6434 N   0  0  0  0  0  0  0  0  0  0  0  0
    3.5319   -2.1046   -0.2838 C   0  0  0  0  0  0  0  0  0  0  0  0
    2.5503   -0.9934    0.0122 C   0  0  0  0  0  0  0  0  0  0  0  0
    4.9730   -1.5858   -0.3374 C   0  0  0  0  0  0  0  0  0  0  0  0
    2.9494    0.0714    0.7262 C   0  0  0  0  0  0  0  0  0  0  0  0
    1.2679   -1.0714   -0.3871 C   0  0  0  0  0  0  0  0  0  0  0  0
    5.2723   -0.6037    0.7794 C   0  0  0  0  0  0  0  0  0  0  0  0
    0.3707   -0.1136   -0.0894 C   0  0  0  0  0  0  0  0  0  0  0  0
    2.0695    1.0286    1.0520 C   0  0  0  0  0  0  0  0  0  0  0  0
    0.7965    0.9356    0.6401 C   0  0  0  0  0  0  0  0  0  0  0  0
   -4.5341    1.5302   -0.4720 C   0  0  0  0  0  0  0  0  0  0  0  0
   -5.5577    0.6595   -1.1667 C   0  0  0  0  0  0  0  0  0  0  0  0
   -3.2028    1.9851    1.4025 C   0  0  0  0  0  0  0  0  0  0  0  0
   -4.1710    1.2761    0.7988 C   0  0  0  0  0  0  0  0  0  0  0  0
   -3.7935   -1.0052   -1.7244 C   0  0  0  0  0  0  0  0  0  0  0  0
   -1.6488   -0.8499   -1.0740 C   0  0  0  0  0  0  0  0  0  0  0  0
   -3.9289    2.5388   -1.1238 C   0  0  0  0  0  0  0  0  0  0  0  0
   -3.5254   -2.1702   -2.3497 C   0  0  0  0  0  0  0  0  0  0  0  0
   -2.6103    2.9896    0.7368 C   0  0  0  0  0  0  0  0  0  0  0  0
   -2.9758    3.2673   -0.5235 C   0  0  0  0  0  0  0  0  0  0  0  0
   -2.2497   -2.5830   -2.2613 C   0  0  0  0  0  0  0  0  0  0  0  0
   -2.2554   -0.2598    3.0583 C   0  0  0  0  0  0  0  0  0  0  0  0
   -4.5731   -2.9716   -3.0961 C   0  0  0  0  0  0  0  0  0  0  0  0
    4.3886    0.9630    1.7485 H   0  0  0  0  0  0  0  0  0  0  0  0
   -1.3559    0.7616   -0.0513 H   0  0  0  0  0  0  0  0  0  0  0  0
   -5.6721   -1.1749   -2.3019 H   0  0  0  0  0  0  0  0  0  0  0  0
    3.2858   -2.6178   -1.2429 H   0  0  0  0  0  0  0  0  0  0  0  0
    3.4385   -2.8577    0.5351 H   0  0  0  0  0  0  0  0  0  0  0  0
    5.6990   -2.4314   -0.3152 H   0  0  0  0  0  0  0  0  0  0  0  0
    5.1310   -1.0328   -1.2946 H   0  0  0  0  0  0  0  0  0  0  0  0
    0.9852   -1.9666   -0.9575 H   0  0  0  0  0  0  0  0  0  0  0  0
    2.3888    1.8989    1.6499 H   0  0  0  0  0  0  0  0  0  0  0  0
    0.1074    1.7504    0.9215 H   0  0  0  0  0  0  0  0  0  0  0  0
   -6.0695    1.2328   -1.9735 H   0  0  0  0  0  0  0  0  0  0  0  0
   -6.3550    0.3607   -0.4476 H   0  0  0  0  0  0  0  0  0  0  0  0
   -4.6495    0.4351    1.3265 H   0  0  0  0  0  0  0  0  0  0  0  0
   -4.1977    2.7601   -2.1698 H   0  0  0  0  0  0  0  0  0  0  0  0
   -1.8183    3.5928    1.2108 H   0  0  0  0  0  0  0  0  0  0  0  0
   -2.4807    4.0858   -1.0723 H   0  0  0  0  0  0  0  0  0  0  0  0
   -1.9185   -3.5228   -2.7319 H   0  0  0  0  0  0  0  0  0  0  0  0
   -1.8767   -0.5778    4.0563 H   0  0  0  0  0  0  0  0  0  0  0  0
   -3.1615   -0.8577    2.8119 H   0  0  0  0  0  0  0  0  0  0  0  0
   -1.4791   -0.4785    2.2911 H   0  0  0  0  0  0  0  0  0  0  0  0
  1  6  2  0      
  1  7  2  0      
  1 24  1  0      
  1 33  1  0      
  2 34  1  0      
  3 34  1  0      
  4 34  1  0      
  5 18  2  0      
  8 16  1  0      
  8 18  1  0      
  8 35  1  0      
  9 19  1  0      
  9 27  1  0      
  9 36  1  0      
 10 23  1  0      
 10 26  1  0      
 10 37  1  0      
 26 11  1  0      
 11 27  2  0      
 27 12  1  0      
 32 12  2  0      
 13 14  1  0      
 15 13  1  0      
 13 38  1  0      
 13 39  1  0      
 14 16  2  0      
 14 17  1  0      
 18 15  1  0      
 15 40  1  0      
 15 41  1  0      
 20 16  1  0      
 17 19  2  0      
 17 42  1  0      
 19 21  1  0      
 21 20  2  0      
 20 43  1  0      
 21 44  1  0      
 22 23  1  0      
 22 25  1  0      
 22 28  2  0      
 23 45  1  0      
 23 46  1  0      
 25 24  2  0      
 24 30  1  0      
 25 47  1  0      
 29 26  2  0      
 31 28  1  0      
 28 48  1  0      
 32 29  1  0      
 29 34  1  0      
 30 31  2  0      
 30 49  1  0      
 31 50  1  0      
 32 51  1  0      
 33 52  1  0      
 33 53  1  0      
 33 54  1  0      
M  END
