
  Chem3D Core 15.008161522043D

 77 82  0  0  0  0  0  0  0  0999 V2000
   -6.2121    2.4179    1.2120 Cl  0  0  0  0  0  0  0  0  0  0  0  0
   -3.6703   -0.6928   -2.4161 Cl  0  0  0  0  0  0  0  0  0  0  0  0
   -5.7422   -1.5444    0.6784 S   0  0  0  0  0  0  0  0  0  0  0  0
    2.5260    3.2517    3.3699 O   0  0  0  0  0  0  0  0  0  0  0  0
    1.3961   -2.8757    0.0196 O   0  0  0  0  0  0  0  0  0  0  0  0
   -5.8187   -0.6625    1.8398 O   0  0  0  0  0  0  0  0  0  0  0  0
   -6.9275   -2.2523    0.1980 O   0  0  0  0  0  0  0  0  0  0  0  0
    4.1637    3.0683    1.8795 N   0  0  0  0  0  0  0  0  0  0  0  0
    2.3180    2.4096   -0.6616 N   0  0  0  0  0  0  0  0  0  0  0  0
    2.1145   -0.4975    1.4048 N   0  0  0  0  0  0  0  0  0  0  0  0
   -0.5574   -3.7027   -0.2666 N   0  0  0  0  0  0  0  0  0  0  0  0
    4.5277    2.8713    0.4688 C   0  0  0  0  0  0  0  0  0  0  0  0
    3.4410    3.3271   -0.5346 C   0  0  0  0  0  0  0  0  0  0  0  0
    5.7933    3.7398    0.2664 C   0  0  0  0  0  0  0  0  0  0  0  0
    6.3322    3.9378    1.6864 C   0  0  0  0  0  0  0  0  0  0  0  0
    5.0309    4.0683    2.4850 C   0  0  0  0  0  0  0  0  0  0  0  0
    1.1870    2.9939   -1.3662 C   0  0  0  0  0  0  0  0  0  0  0  0
    2.6237    1.2417   -1.4786 C   0  0  0  0  0  0  0  0  0  0  0  0
    1.5195    2.8985   -2.8619 C   0  0  0  0  0  0  0  0  0  0  0  0
    2.4567    1.6812   -2.9434 C   0  0  0  0  0  0  0  0  0  0  0  0
    3.0534    2.5732    2.5181 C   0  0  0  0  0  0  0  0  0  0  0  0
    2.4535    1.4363    2.0821 C   0  0  0  0  0  0  0  0  0  0  0  0
    1.1262    1.2526    1.9449 C   0  0  0  0  0  0  0  0  0  0  0  0
    3.0561    0.2827    1.7466 C   0  0  0  0  0  0  0  0  0  0  0  0
    0.9501   -0.0011    1.4782 C   0  0  0  0  0  0  0  0  0  0  0  0
    0.0551    2.2892    2.1717 C   0  0  0  0  0  0  0  0  0  0  0  0
    4.5065   -0.1023    1.8347 C   0  0  0  0  0  0  0  0  0  0  0  0
   -0.2247   -0.5759    1.1745 C   0  0  0  0  0  0  0  0  0  0  0  0
   -0.5704   -1.7601    0.6366 C   0  0  0  0  0  0  0  0  0  0  0  0
   -1.8359   -2.1842    0.4596 C   0  0  0  0  0  0  0  0  0  0  0  0
   -1.7744   -3.3950   -0.1097 C   0  0  0  0  0  0  0  0  0  0  0  0
    0.1972   -2.7712    0.1412 C   0  0  0  0  0  0  0  0  0  0  0  0
   -3.0300   -1.6379    0.7301 C   0  0  0  0  0  0  0  0  0  0  0  0
   -4.1494   -2.3067    0.3942 C   0  0  0  0  0  0  0  0  0  0  0  0
   -2.8732   -4.0871   -0.4284 C   0  0  0  0  0  0  0  0  0  0  0  0
   -4.0667   -3.5256   -0.1723 C   0  0  0  0  0  0  0  0  0  0  0  0
   -6.0248   -0.1315   -0.5264 C   0  0  0  0  0  0  0  0  0  0  0  0
   -4.8742    0.8751   -0.5700 C   0  0  0  0  0  0  0  0  0  0  0  0
   -4.8890    2.0068    0.1715 C   0  0  0  0  0  0  0  0  0  0  0  0
   -3.8058    0.6885   -1.3790 C   0  0  0  0  0  0  0  0  0  0  0  0
   -3.8715    2.8840    0.1350 C   0  0  0  0  0  0  0  0  0  0  0  0
   -2.7854    1.5618   -1.4159 C   0  0  0  0  0  0  0  0  0  0  0  0
   -2.8123    2.6623   -0.6537 C   0  0  0  0  0  0  0  0  0  0  0  0
    2.3202   -1.4766    1.1162 H   0  0  0  0  0  0  0  0  0  0  0  0
   -0.2132   -4.5922   -0.6917 H   0  0  0  0  0  0  0  0  0  0  0  0
    4.8259    1.8198    0.2828 H   0  0  0  0  0  0  0  0  0  0  0  0
    3.0757    4.3176   -0.1703 H   0  0  0  0  0  0  0  0  0  0  0  0
    3.9071    3.5055   -1.5312 H   0  0  0  0  0  0  0  0  0  0  0  0
    6.5382    3.2744   -0.4184 H   0  0  0  0  0  0  0  0  0  0  0  0
    5.5280    4.7431   -0.1444 H   0  0  0  0  0  0  0  0  0  0  0  0
    6.9970    4.8253    1.7870 H   0  0  0  0  0  0  0  0  0  0  0  0
    6.8919    3.0272    2.0089 H   0  0  0  0  0  0  0  0  0  0  0  0
    5.2092    3.8637    3.5658 H   0  0  0  0  0  0  0  0  0  0  0  0
    4.5801    5.0812    2.3659 H   0  0  0  0  0  0  0  0  0  0  0  0
    0.2809    2.3757   -1.1548 H   0  0  0  0  0  0  0  0  0  0  0  0
    0.9464    4.0280   -1.0322 H   0  0  0  0  0  0  0  0  0  0  0  0
    3.6236    0.8012   -1.2747 H   0  0  0  0  0  0  0  0  0  0  0  0
    1.8749    0.4414   -1.2606 H   0  0  0  0  0  0  0  0  0  0  0  0
    2.0435    3.8225   -3.2024 H   0  0  0  0  0  0  0  0  0  0  0  0
    0.6016    2.7717   -3.4809 H   0  0  0  0  0  0  0  0  0  0  0  0
    2.0255    0.8632   -3.5658 H   0  0  0  0  0  0  0  0  0  0  0  0
    3.4389    1.9681   -3.3871 H   0  0  0  0  0  0  0  0  0  0  0  0
    0.4326    3.3214    2.0014 H   0  0  0  0  0  0  0  0  0  0  0  0
   -0.7922    2.1882    1.4601 H   0  0  0  0  0  0  0  0  0  0  0  0
   -0.3405    2.2146    3.2097 H   0  0  0  0  0  0  0  0  0  0  0  0
    5.1383    0.6699    2.3252 H   0  0  0  0  0  0  0  0  0  0  0  0
    4.5979   -1.0239    2.4534 H   0  0  0  0  0  0  0  0  0  0  0  0
    4.9152   -0.3428    0.8277 H   0  0  0  0  0  0  0  0  0  0  0  0
   -1.0899    0.0604    1.4203 H   0  0  0  0  0  0  0  0  0  0  0  0
   -3.1030   -0.6443    1.1971 H   0  0  0  0  0  0  0  0  0  0  0  0
   -2.7982   -5.0812   -0.8972 H   0  0  0  0  0  0  0  0  0  0  0  0
   -4.9796   -4.0826   -0.4413 H   0  0  0  0  0  0  0  0  0  0  0  0
   -6.1938   -0.5626   -1.5390 H   0  0  0  0  0  0  0  0  0  0  0  0
   -6.9970    0.3565   -0.2923 H   0  0  0  0  0  0  0  0  0  0  0  0
   -3.8870    3.8026    0.7463 H   0  0  0  0  0  0  0  0  0  0  0  0
   -1.9133    1.3942   -2.0709 H   0  0  0  0  0  0  0  0  0  0  0  0
   -1.9795    3.3843   -0.6834 H   0  0  0  0  0  0  0  0  0  0  0  0
  1 39  1  0      
  2 40  1  0      
  3  6  2  0      
  3  7  2  0      
  3 34  1  0      
  3 37  1  0      
  4 21  2  0      
  5 32  2  0      
  8 12  1  0      
  8 16  1  0      
  8 21  1  0      
  9 13  1  0      
  9 17  1  0      
  9 18  1  0      
 24 10  1  0      
 25 10  1  0      
 10 44  1  0      
 11 31  1  0      
 11 32  1  0      
 11 45  1  0      
 12 13  1  0      
 12 14  1  0      
 12 46  1  0      
 13 47  1  0      
 13 48  1  0      
 14 15  1  0      
 14 49  1  0      
 14 50  1  0      
 15 16  1  0      
 15 51  1  0      
 15 52  1  0      
 16 53  1  0      
 16 54  1  0      
 17 19  1  0      
 17 55  1  0      
 17 56  1  0      
 20 18  1  0      
 18 57  1  0      
 18 58  1  0      
 19 20  1  0      
 19 59  1  0      
 19 60  1  0      
 20 61  1  0      
 20 62  1  0      
 21 22  1  0      
 22 23  1  0      
 24 22  2  0      
 23 25  2  0      
 23 26  1  0      
 24 27  1  0      
 25 28  1  0      
 26 63  1  0      
 26 64  1  0      
 26 65  1  0      
 27 66  1  0      
 27 67  1  0      
 27 68  1  0      
 28 29  2  0      
 28 69  1  0      
 29 30  1  0      
 29 32  1  0      
 30 31  2  0      
 30 33  1  0      
 31 35  1  0      
 33 34  2  0      
 33 70  1  0      
 34 36  1  0      
 35 36  2  0      
 35 71  1  0      
 36 72  1  0      
 37 38  1  0      
 37 73  1  0      
 37 74  1  0      
 38 39  1  0      
 38 40  2  0      
 39 41  2  0      
 42 40  1  0      
 41 43  1  0      
 41 75  1  0      
 43 42  2  0      
 42 76  1  0      
 43 77  1  0      
M  END
