
  Chem3D Core 14.008131518073D

 62 67  0  0  0  0  0  0  0  0999 V2000
   -6.1836    2.5724    3.0469 C   0  0  0  0  0  0  0  0  0  0  0  0
   -6.4264    2.4153    1.3057 S   0  0  0  0  0  0  0  0  0  0  0  0
   -7.7785    1.9971    0.9336 O   0  0  0  0  0  0  0  0  0  0  0  0
   -5.6955    3.3671    0.4778 O   0  0  0  0  0  0  0  0  0  0  0  0
   -5.6463    0.9933    0.7526 N   0  0  0  0  0  0  0  0  0  0  0  0
   -4.2414    0.8345    1.1055 C   0  0  0  0  0  0  0  0  0  0  0  0
   -3.2626    1.4924    0.1181 C   0  0  0  0  0  0  0  0  0  0  0  0
   -3.4747    0.9941   -1.2321 N   0  0  0  0  0  0  0  0  0  0  0  0
   -4.8535    1.2333   -1.6269 C   0  0  0  0  0  0  0  0  0  0  0  0
   -5.8376    0.5889   -0.6357 C   0  0  0  0  0  0  0  0  0  0  0  0
   -2.5420    1.5833   -2.1882 C   0  0  0  0  0  0  0  0  0  0  0  0
   -1.1197    1.1608   -1.9042 C   0  0  0  0  0  0  0  0  0  0  0  0
   -0.1437    1.9887   -1.5152 C   0  0  0  0  0  0  0  0  0  0  0  0
    0.9736    1.2749   -1.3530 C   0  0  0  0  0  0  0  0  0  0  0  0
    0.7845   -0.0242   -1.6293 C   0  0  0  0  0  0  0  0  0  0  0  0
   -0.6228   -0.2163   -2.0182 S   0  0  0  0  0  0  0  0  0  0  0  0
    1.8407   -0.8625   -1.4990 C   0  0  0  0  0  0  0  0  0  0  0  0
    2.9106   -0.2849   -1.1113 N   0  0  0  0  0  0  0  0  0  0  0  0
    3.0626    0.9516   -0.8584 C   0  0  0  0  0  0  0  0  0  0  0  0
    2.0825    1.7417   -0.9831 N   0  0  0  0  0  0  0  0  0  0  0  0
    4.2707    1.4206   -0.4549 C   0  0  0  0  0  0  0  0  0  0  0  0
    4.5375    2.7109   -0.1627 C   0  0  0  0  0  0  0  0  0  0  0  0
    3.8461    3.8648   -0.1505 C   0  0  0  0  0  0  0  0  0  0  0  0
    4.5735    4.8374    0.2107 N   0  0  0  0  0  0  0  0  0  0  0  0
    5.6910    4.3635    0.4287 N   0  0  0  0  0  0  0  0  0  0  0  0
    5.7541    3.1145    0.2319 C   0  0  0  0  0  0  0  0  0  0  0  0
    6.7886    2.2830    0.3664 C   0  0  0  0  0  0  0  0  0  0  0  0
    6.5516    0.9946    0.0829 C   0  0  0  0  0  0  0  0  0  0  0  0
    5.3311    0.5889   -0.3130 C   0  0  0  0  0  0  0  0  0  0  0  0
    1.8711   -2.1301   -1.7054 N   0  0  0  0  0  0  0  0  0  0  0  0
    0.6708   -2.8997   -2.1096 C   0  0  0  0  0  0  0  0  0  0  0  0
    0.9582   -4.3535   -2.4876 C   0  0  0  0  0  0  0  0  0  0  0  0
    1.9466   -4.9101   -1.6620 O   0  0  0  0  0  0  0  0  0  0  0  0
    3.1819   -4.2841   -1.8865 C   0  0  0  0  0  0  0  0  0  0  0  0
    3.1501   -2.8356   -1.4057 C   0  0  0  0  0  0  0  0  0  0  0  0
   -5.1500    2.9163    3.2724 H   0  0  0  0  0  0  0  0  0  0  0  0
   -6.8961    3.3243    3.4538 H   0  0  0  0  0  0  0  0  0  0  0  0
   -6.3666    1.5974    3.5514 H   0  0  0  0  0  0  0  0  0  0  0  0
   -4.0309    1.1967    2.1381 H   0  0  0  0  0  0  0  0  0  0  0  0
   -4.0072   -0.2584    1.1414 H   0  0  0  0  0  0  0  0  0  0  0  0
   -3.3518    2.6017    0.1562 H   0  0  0  0  0  0  0  0  0  0  0  0
   -2.2262    1.2542    0.4579 H   0  0  0  0  0  0  0  0  0  0  0  0
   -5.0380    0.7885   -2.6351 H   0  0  0  0  0  0  0  0  0  0  0  0
   -5.0570    2.3236   -1.7281 H   0  0  0  0  0  0  0  0  0  0  0  0
   -5.7087   -0.5202   -0.6988 H   0  0  0  0  0  0  0  0  0  0  0  0
   -6.8806    0.7686   -0.9856 H   0  0  0  0  0  0  0  0  0  0  0  0
   -2.7894    1.2570   -3.2270 H   0  0  0  0  0  0  0  0  0  0  0  0
   -2.6215    2.6956   -2.1830 H   0  0  0  0  0  0  0  0  0  0  0  0
   -0.2459    3.0697   -1.3505 H   0  0  0  0  0  0  0  0  0  0  0  0
    2.7946    4.0462   -0.4010 H   0  0  0  0  0  0  0  0  0  0  0  0
    6.4784    4.9732    0.7436 H   0  0  0  0  0  0  0  0  0  0  0  0
    7.7785    2.6381    0.6921 H   0  0  0  0  0  0  0  0  0  0  0  0
    7.3729    0.2636    0.1781 H   0  0  0  0  0  0  0  0  0  0  0  0
    5.2514   -0.4920   -0.5181 H   0  0  0  0  0  0  0  0  0  0  0  0
    0.1974   -2.4622   -3.0196 H   0  0  0  0  0  0  0  0  0  0  0  0
   -0.0469   -2.9109   -1.2535 H   0  0  0  0  0  0  0  0  0  0  0  0
    1.2789   -4.4440   -3.5514 H   0  0  0  0  0  0  0  0  0  0  0  0
    0.0371   -4.9732   -2.3823 H   0  0  0  0  0  0  0  0  0  0  0  0
    3.9622   -4.8604   -1.3363 H   0  0  0  0  0  0  0  0  0  0  0  0
    3.4397   -4.3492   -2.9686 H   0  0  0  0  0  0  0  0  0  0  0  0
    3.2949   -2.8377   -0.2973 H   0  0  0  0  0  0  0  0  0  0  0  0
    4.0267   -2.3332   -1.8819 H   0  0  0  0  0  0  0  0  0  0  0  0
  1  2  1  0      
  1 36  1  0      
  1 37  1  0      
  1 38  1  0      
  2  3  2  0      
  2  4  2  0      
  2  5  1  0      
  5  6  1  0      
  5 10  1  0      
  6  7  1  0      
  6 39  1  0      
  6 40  1  0      
  7  8  1  0      
  7 41  1  0      
  7 42  1  0      
  8  9  1  0      
  8 11  1  0      
  9 10  1  0      
  9 43  1  0      
  9 44  1  0      
 10 45  1  0      
 10 46  1  0      
 11 12  1  0      
 11 47  1  0      
 11 48  1  0      
 12 13  2  0      
 16 12  1  0      
 13 14  1  0      
 13 49  1  0      
 15 14  2  0      
 14 20  1  0      
 15 16  1  0      
 17 15  1  0      
 18 17  2  0      
 17 30  1  0      
 19 18  1  0      
 19 20  2  0      
 19 21  1  0      
 21 22  1  0      
 29 21  2  0      
 23 22  1  0      
 26 22  2  0      
 23 24  2  0      
 23 50  1  0      
 24 25  1  0      
 25 26  1  0      
 25 51  1  0      
 26 27  1  0      
 27 28  2  0      
 27 52  1  0      
 28 29  1  0      
 28 53  1  0      
 29 54  1  0      
 30 31  1  0      
 30 35  1  0      
 31 32  1  0      
 31 55  1  0      
 31 56  1  0      
 32 33  1  0      
 32 57  1  0      
 32 58  1  0      
 33 34  1  0      
 34 35  1  0      
 34 59  1  0      
 34 60  1  0      
 35 61  1  0      
 35 62  1  0      
M  END
