
  Chem3D Core 15.003291616413D

  0  0  0     0  0              0 V3000
M  V30 BEGIN CTAB
M  V30 COUNTS 42 43 0 0 0
M  V30 BEGIN ATOM
M  V30 1 O 1.070288 3.499534 -1.136113 0
M  V30 2 C 0.205016 2.441758 -0.994537 0
M  V30 3 C 0.688854 1.204993 -0.778420 0
M  V30 4 C -0.092496 0.129957 -0.568627 0
M  V30 5 C 0.482407 -1.074862 -0.361130 0
M  V30 6 C -0.131869 -2.255076 -0.159367 0
M  V30 7 C 0.468573 -3.464891 0.032889 0
M  V30 8 O -0.215901 -4.466638 0.036891 0
M  V30 9 N 1.825482 -3.590474 0.323976 0
M  V30 10 C 2.425711 -2.714718 1.336941 0
M  V30 11 C 3.229781 -3.539321 2.347062 0
M  V30 12 C 4.124977 -4.462038 1.574283 0
M  V30 13 C 3.794168 -4.902543 0.352436 0
M  V30 14 C 2.636538 -4.554389 -0.269079 0
M  V30 15 O 2.340858 -5.036396 -1.340389 0
M  V30 16 C -1.416511 0.360113 -0.573686 0
M  V30 17 C -1.951919 1.577136 -0.784944 0
M  V30 18 O -3.313531 1.747117 -0.709816 0
M  V30 19 C -3.962332 1.679703 -1.959342 0
M  V30 20 C -1.127159 2.643392 -0.887028 0
M  V30 21 O -1.648933 3.901257 -1.072191 0
M  V30 22 C -1.830435 4.624575 0.123647 0
M  V30 23 C 1.346990 3.829794 -2.478240 0
M  V30 24 H 1.788174 1.098967 -0.776549 0
M  V30 25 H 1.582677 -1.092396 -0.384528 0
M  V30 26 H -1.231641 -2.301625 -0.223047 0
M  V30 27 H 1.658212 -2.129821 1.896633 0
M  V30 28 H 3.124166 -1.999575 0.839209 0
M  V30 29 H 2.563864 -4.145681 3.004347 0
M  V30 30 H 3.838404 -2.861503 2.991176 0
M  V30 31 H 5.052111 -4.812497 2.058228 0
M  V30 32 H 4.472369 -5.620826 -0.140906 0
M  V30 33 H -2.136738 -0.452875 -0.395095 0
M  V30 34 H -3.799017 0.678887 -2.418288 0
M  V30 35 H -5.052111 1.831904 -1.793157 0
M  V30 36 H -3.581724 2.479128 -2.633314 0
M  V30 37 H -2.253375 5.620826 -0.135052 0
M  V30 38 H -2.541716 4.088730 0.790812 0
M  V30 39 H -0.853252 4.765460 0.637067 0
M  V30 40 H 2.050326 4.692160 -2.485331 0
M  V30 41 H 1.824290 2.964749 -2.990941 0
M  V30 42 H 0.410512 4.119988 -3.004347 0
M  V30 END ATOM
M  V30 BEGIN BOND
M  V30 1 1 1 2
M  V30 2 1 1 23
M  V30 3 1 2 3
M  V30 4 2 2 20
M  V30 5 2 3 4
M  V30 6 1 3 24
M  V30 7 1 4 5
M  V30 8 1 4 16
M  V30 9 2 5 6
M  V30 10 1 5 25
M  V30 11 1 6 7
M  V30 12 1 6 26
M  V30 13 2 7 8
M  V30 14 1 7 9
M  V30 15 1 9 10
M  V30 16 1 9 14
M  V30 17 1 10 11
M  V30 18 1 10 27
M  V30 19 1 10 28
M  V30 20 1 11 12
M  V30 21 1 11 29
M  V30 22 1 11 30
M  V30 23 2 12 13
M  V30 24 1 12 31
M  V30 25 1 13 14
M  V30 26 1 13 32
M  V30 27 2 14 15
M  V30 28 2 16 17
M  V30 29 1 16 33
M  V30 30 1 17 18
M  V30 31 1 17 20
M  V30 32 1 18 19
M  V30 33 1 19 34
M  V30 34 1 19 35
M  V30 35 1 19 36
M  V30 36 1 20 21
M  V30 37 1 21 22
M  V30 38 1 22 37
M  V30 39 1 22 38
M  V30 40 1 22 39
M  V30 41 1 23 40
M  V30 42 1 23 41
M  V30 43 1 23 42
M  V30 END BOND
M  V30 END CTAB
M  END
