
  Chem3D Core 15.010021516353D

 55 58  0  0  0  0  0  0  0  0999 V2000
    0.5179   -5.4919   -2.4005 C   0  0  0  0  0  0  0  0  0  0  0  0
    1.8327   -5.4849   -2.6504 C   0  0  0  0  0  0  0  0  0  0  0  0
    2.4988   -4.3275   -2.5499 C   0  0  0  0  0  0  0  0  0  0  0  0
    1.8656   -3.1998   -2.1763 C   0  0  0  0  0  0  0  0  0  0  0  0
    0.5554   -3.1910   -1.8665 C   0  0  0  0  0  0  0  0  0  0  0  0
   -0.1015   -4.3601   -2.0303 C   0  0  0  0  0  0  0  0  0  0  0  0
    2.5570   -2.1457   -2.1363 N   0  0  0  0  0  0  0  0  0  0  0  0
    2.0685   -1.0299   -1.7963 C   0  0  0  0  0  0  0  0  0  0  0  0
    0.7597   -0.8881   -1.4760 C   0  0  0  0  0  0  0  0  0  0  0  0
   -0.0128   -2.0122   -1.5091 C   0  0  0  0  0  0  0  0  0  0  0  0
   -1.3430   -1.9784   -1.2479 C   0  0  0  0  0  0  0  0  0  0  0  0
   -1.9054   -2.8069   -0.3446 C   0  0  0  0  0  0  0  0  0  0  0  0
   -3.2202   -2.7714   -0.0768 C   0  0  0  0  0  0  0  0  0  0  0  0
   -4.0188   -1.9017   -0.7119 C   0  0  0  0  0  0  0  0  0  0  0  0
   -3.4810   -1.0707   -1.6161 C   0  0  0  0  0  0  0  0  0  0  0  0
   -2.1649   -1.1118   -1.8761 C   0  0  0  0  0  0  0  0  0  0  0  0
    0.2177    0.2802   -1.0547 C   0  0  0  0  0  0  0  0  0  0  0  0
    0.6554    1.5500   -1.0630 C   0  0  0  0  0  0  0  0  0  0  0  0
   -5.3152   -1.8644   -0.4503 F   0  0  0  0  0  0  0  0  0  0  0  0
    3.1006    0.0484   -1.7730 C   0  0  0  0  0  0  0  0  0  0  0  0
   -0.1754    2.7093   -0.5547 C   0  0  0  0  0  0  0  0  0  0  0  0
   -0.6628    2.5922    0.8918 C   0  0  0  0  0  0  0  0  0  0  0  0
    0.4146    2.3398    1.9522 C   0  0  0  0  0  0  0  0  0  0  0  0
    1.6393    3.2540    1.8728 C   0  0  0  0  0  0  0  0  0  0  0  0
   -1.3038    2.8760   -1.3985 O   0  0  0  0  0  0  0  0  0  0  0  0
    0.8444    1.0010    1.8633 O   0  0  0  0  0  0  0  0  0  0  0  0
    1.3346    4.7327    2.0242 C   0  0  0  0  0  0  0  0  0  0  0  0
    2.3470    5.4936    1.5632 O   0  0  0  0  0  0  0  0  0  0  0  0
    0.3347    5.2245    2.4878 O   0  0  0  0  0  0  0  0  0  0  0  0
    3.4553    0.4430   -0.3562 C   0  0  0  0  0  0  0  0  0  0  0  0
    4.4123   -0.3968   -1.1530 C   0  0  0  0  0  0  0  0  0  0  0  0
   -0.0546   -6.4274   -2.5206 H   0  0  0  0  0  0  0  0  0  0  0  0
    2.3495   -6.4066   -2.9650 H   0  0  0  0  0  0  0  0  0  0  0  0
    3.5763   -4.3169   -2.7908 H   0  0  0  0  0  0  0  0  0  0  0  0
   -1.1902   -4.4552   -1.8999 H   0  0  0  0  0  0  0  0  0  0  0  0
   -1.2854   -3.5119    0.2367 H   0  0  0  0  0  0  0  0  0  0  0  0
   -3.6468   -3.4518    0.6791 H   0  0  0  0  0  0  0  0  0  0  0  0
   -4.1270   -0.3574   -2.1547 H   0  0  0  0  0  0  0  0  0  0  0  0
   -1.7785   -0.4303   -2.6545 H   0  0  0  0  0  0  0  0  0  0  0  0
   -0.7850    0.2524   -0.6023 H   0  0  0  0  0  0  0  0  0  0  0  0
    1.6113    1.8492   -1.5065 H   0  0  0  0  0  0  0  0  0  0  0  0
    3.1405    0.7317   -2.6252 H   0  0  0  0  0  0  0  0  0  0  0  0
    0.4151    3.6506   -0.6586 H   0  0  0  0  0  0  0  0  0  0  0  0
   -1.2041    3.5351    1.1454 H   0  0  0  0  0  0  0  0  0  0  0  0
   -1.4343    1.7900    0.9695 H   0  0  0  0  0  0  0  0  0  0  0  0
   -0.0475    2.4329    2.9650 H   0  0  0  0  0  0  0  0  0  0  0  0
    2.3534    2.9818    2.6863 H   0  0  0  0  0  0  0  0  0  0  0  0
    2.1687    3.0856    0.9074 H   0  0  0  0  0  0  0  0  0  0  0  0
   -1.7893    3.6589   -1.1312 H   0  0  0  0  0  0  0  0  0  0  0  0
    1.2142    0.7159    2.7014 H   0  0  0  0  0  0  0  0  0  0  0  0
    2.1109    6.4274    1.6874 H   0  0  0  0  0  0  0  0  0  0  0  0
    3.7344    1.4804   -0.1782 H   0  0  0  0  0  0  0  0  0  0  0  0
    2.9504   -0.0457    0.4749 H   0  0  0  0  0  0  0  0  0  0  0  0
    4.5614   -1.4177   -0.8068 H   0  0  0  0  0  0  0  0  0  0  0  0
    5.3152    0.0845   -1.5271 H   0  0  0  0  0  0  0  0  0  0  0  0
  1  2  2  0      
  6  1  1  0      
  1 32  1  0      
  2  3  1  0      
  2 33  1  0      
  3  4  2  0      
  3 34  1  0      
  5  4  1  0      
  4  7  1  0      
  5  6  2  0      
 10  5  1  0      
  6 35  1  0      
  8  7  2  0      
  8  9  1  0      
  8 20  1  0      
  9 10  2  0      
  9 17  1  0      
 10 11  1  0      
 11 12  1  0      
 11 16  2  0      
 12 13  2  0      
 12 36  1  0      
 13 14  1  0      
 13 37  1  0      
 14 15  2  0      
 14 19  1  0      
 15 16  1  0      
 15 38  1  0      
 16 39  1  0      
 17 18  2  0      
 17 40  1  0      
 18 21  1  0      
 18 41  1  0      
 20 30  1  0      
 20 31  1  0      
 20 42  1  0      
 21 22  1  0      
 21 25  1  0      
 21 43  1  0      
 22 23  1  0      
 22 44  1  0      
 22 45  1  0      
 23 24  1  0      
 23 26  1  0      
 23 46  1  0      
 24 27  1  0      
 24 47  1  0      
 24 48  1  0      
 25 49  1  0      
 26 50  1  0      
 27 28  1  0      
 27 29  2  0      
 28 51  1  0      
 30 31  1  0      
 30 52  1  0      
 30 53  1  0      
 31 54  1  0      
 31 55  1  0      
M  END
