
  Chem3D Core 15.001271610543D

 41 43  0  0  0  0  0  0  0  0999 V2000
   -2.3057    2.9886   -0.2381 C   0  0  0  0  0  0  0  0  0  0  0  0
   -2.1185    4.2372    0.2215 C   0  0  0  0  0  0  0  0  0  0  0  0
   -0.9206    4.8202    0.0424 C   0  0  0  0  0  0  0  0  0  0  0  0
    0.0540    4.2582   -0.5382 N   0  0  0  0  0  0  0  0  0  0  0  0
   -1.2725    2.3980   -0.8608 C   0  0  0  0  0  0  0  0  0  0  0  0
   -1.0914    1.1843   -1.4264 C   0  0  0  0  0  0  0  0  0  0  0  0
   -0.1181    3.0836   -0.9725 C   0  0  0  0  0  0  0  0  0  0  0  0
    0.1744    1.2105   -1.8804 C   0  0  0  0  0  0  0  0  0  0  0  0
    0.6929    2.3277   -1.5855 N   0  0  0  0  0  0  0  0  0  0  0  0
   -3.3871    5.0767    1.0398 Cl  0  0  0  0  0  0  0  0  0  0  0  0
   -2.0085    0.1807   -1.5777 C   0  0  0  0  0  0  0  0  0  0  0  0
   -3.1806    0.4698   -1.4271 O   0  0  0  0  0  0  0  0  0  0  0  0
   -1.6740   -1.1099   -1.9219 C   0  0  0  0  0  0  0  0  0  0  0  0
   -2.2705   -3.1698   -2.8823 C   0  0  0  0  0  0  0  0  0  0  0  0
   -2.5806   -1.9111   -2.5339 C   0  0  0  0  0  0  0  0  0  0  0  0
   -0.4760   -1.6673   -1.6244 C   0  0  0  0  0  0  0  0  0  0  0  0
   -0.1716   -2.9423   -1.9418 C   0  0  0  0  0  0  0  0  0  0  0  0
   -1.0695   -3.6891   -2.6017 C   0  0  0  0  0  0  0  0  0  0  0  0
   -3.7740   -1.4792   -2.9207 F   0  0  0  0  0  0  0  0  0  0  0  0
    0.3992   -1.0423   -0.8501 F   0  0  0  0  0  0  0  0  0  0  0  0
    0.9876   -3.3755   -1.6390 N   0  0  0  0  0  0  0  0  0  0  0  0
    1.1478   -4.8437   -0.8134 S   0  0  0  0  0  0  0  0  0  0  0  0
    0.0153   -5.2398    0.0175 O   0  0  0  0  0  0  0  0  0  0  0  0
    2.0318   -5.8431   -1.4056 O   0  0  0  0  0  0  0  0  0  0  0  0
    2.2673   -4.5724    0.6439 C   0  0  0  0  0  0  0  0  0  0  0  0
    1.7873   -3.4535    1.5831 C   0  0  0  0  0  0  0  0  0  0  0  0
    2.7592   -3.2464    2.7531 C   0  0  0  0  0  0  0  0  0  0  0  0
   -3.2745    2.4962   -0.0775 H   0  0  0  0  0  0  0  0  0  0  0  0
   -0.7300    5.8431    0.4092 H   0  0  0  0  0  0  0  0  0  0  0  0
    0.7619    0.4965   -2.4672 H   0  0  0  0  0  0  0  0  0  0  0  0
    1.6698    2.6083   -1.8328 H   0  0  0  0  0  0  0  0  0  0  0  0
   -3.0076   -3.7838   -3.4275 H   0  0  0  0  0  0  0  0  0  0  0  0
   -0.8433   -4.7209   -2.9187 H   0  0  0  0  0  0  0  0  0  0  0  0
    1.5591   -2.6006   -1.2127 H   0  0  0  0  0  0  0  0  0  0  0  0
    3.2766   -4.3028    0.2508 H   0  0  0  0  0  0  0  0  0  0  0  0
    2.3659   -5.5283    1.2111 H   0  0  0  0  0  0  0  0  0  0  0  0
    0.7787   -3.6971    1.9941 H   0  0  0  0  0  0  0  0  0  0  0  0
    1.6951   -2.4949    1.0198 H   0  0  0  0  0  0  0  0  0  0  0  0
    2.4061   -2.4324    3.4275 H   0  0  0  0  0  0  0  0  0  0  0  0
    3.7740   -2.9669    2.3884 H   0  0  0  0  0  0  0  0  0  0  0  0
    2.8566   -4.1734    3.3632 H   0  0  0  0  0  0  0  0  0  0  0  0
  1  2  1  0      
  5  1  2  0      
  1 28  1  0      
  2  3  2  0      
  2 10  1  0      
  3  4  1  0      
  3 29  1  0      
  4  7  2  0      
  6  5  1  0      
  5  7  1  0      
  8  6  2  0      
  6 11  1  0      
  9  7  1  0      
  9  8  1  0      
  8 30  1  0      
  9 31  1  0      
 11 12  2  0      
 11 13  1  0      
 13 15  1  0      
 13 16  2  0      
 15 14  2  0      
 14 18  1  0      
 14 32  1  0      
 15 19  1  0      
 17 16  1  0      
 16 20  1  0      
 18 17  2  0      
 17 21  1  0      
 18 33  1  0      
 21 22  1  0      
 21 34  1  0      
 22 23  2  0      
 22 24  2  0      
 22 25  1  0      
 25 26  1  0      
 25 35  1  0      
 25 36  1  0      
 26 27  1  0      
 26 37  1  0      
 26 38  1  0      
 27 39  1  0      
 27 40  1  0      
 27 41  1  0      
M  END
