
  Chem3D Core 15.008171512303D

 62 65  0  0  0  0  0  0  0  0999 V2000
   -1.1136    6.7300   -0.5059 C   0  0  0  0  0  0  0  0  0  0  0  0
   -1.8079    5.6830   -1.0481 C   0  0  0  0  0  0  0  0  0  0  0  0
   -1.5395    4.3687   -0.8170 C   0  0  0  0  0  0  0  0  0  0  0  0
   -2.2696    3.4710   -1.5112 C   0  0  0  0  0  0  0  0  0  0  0  0
   -3.2214    3.8159   -2.3901 C   0  0  0  0  0  0  0  0  0  0  0  0
   -3.4931    5.1086   -2.5892 C   0  0  0  0  0  0  0  0  0  0  0  0
   -2.7838    6.0238   -1.9173 C   0  0  0  0  0  0  0  0  0  0  0  0
   -1.5381    7.8600   -0.4196 O   0  0  0  0  0  0  0  0  0  0  0  0
    0.2133    6.4922   -0.2774 N   0  0  0  0  0  0  0  0  0  0  0  0
   -0.6879    4.0311    0.0755 N   0  0  0  0  0  0  0  0  0  0  0  0
    0.6034    0.7276    0.5456 C   0  0  0  0  0  0  0  0  0  0  0  0
   -0.0589    1.7683   -0.0021 C   0  0  0  0  0  0  0  0  0  0  0  0
   -0.0837    3.0040    0.5354 C   0  0  0  0  0  0  0  0  0  0  0  0
    0.6522    3.1640    1.6607 C   0  0  0  0  0  0  0  0  0  0  0  0
    1.2586    2.0658    2.1467 C   0  0  0  0  0  0  0  0  0  0  0  0
    1.2370    0.9175    1.6234 N   0  0  0  0  0  0  0  0  0  0  0  0
    0.7358    4.4503    2.4657 C   0  0  0  0  0  0  0  0  0  0  0  0
    0.5252   -0.3711   -0.0957 N   0  0  0  0  0  0  0  0  0  0  0  0
    0.9687   -1.5576    0.0419 C   0  0  0  0  0  0  0  0  0  0  0  0
    0.6079   -2.4208   -0.9337 C   0  0  0  0  0  0  0  0  0  0  0  0
    1.0506   -3.6929   -0.8329 C   0  0  0  0  0  0  0  0  0  0  0  0
    1.8170   -4.1898    0.1639 C   0  0  0  0  0  0  0  0  0  0  0  0
    2.1519   -3.2759    1.0976 C   0  0  0  0  0  0  0  0  0  0  0  0
    1.7408   -2.0008    1.0449 C   0  0  0  0  0  0  0  0  0  0  0  0
    3.4472   -7.9022    0.0794 O   0  0  0  0  0  0  0  0  0  0  0  0
    3.3378   -7.3621    1.3695 C   0  0  0  0  0  0  0  0  0  0  0  0
    3.1087   -5.8523    1.3158 C   0  0  0  0  0  0  0  0  0  0  0  0
    2.2107   -5.4125    0.2140 N   0  0  0  0  0  0  0  0  0  0  0  0
    1.8587   -6.3542   -0.8830 C   0  0  0  0  0  0  0  0  0  0  0  0
    2.2204   -7.8106   -0.5949 C   0  0  0  0  0  0  0  0  0  0  0  0
   -0.1740   -1.9479   -1.9686 O   0  0  0  0  0  0  0  0  0  0  0  0
   -0.5425   -2.8074   -3.0223 C   0  0  0  0  0  0  0  0  0  0  0  0
    1.1388    7.5440    0.1443 C   0  0  0  0  0  0  0  0  0  0  0  0
   -0.3814    5.1591    2.4365 F   0  0  0  0  0  0  0  0  0  0  0  0
    1.0408    4.2537    3.7391 F   0  0  0  0  0  0  0  0  0  0  0  0
    1.6918    5.2048    1.9495 F   0  0  0  0  0  0  0  0  0  0  0  0
   -2.1982    2.3891   -1.3575 H   0  0  0  0  0  0  0  0  0  0  0  0
   -3.8076    3.0454   -2.9194 H   0  0  0  0  0  0  0  0  0  0  0  0
   -4.2805    5.4106   -3.2999 H   0  0  0  0  0  0  0  0  0  0  0  0
   -3.0260    7.0753   -2.1500 H   0  0  0  0  0  0  0  0  0  0  0  0
    0.5684    5.5482   -0.4320 H   0  0  0  0  0  0  0  0  0  0  0  0
   -0.4145    4.8681    0.6412 H   0  0  0  0  0  0  0  0  0  0  0  0
   -0.5615    1.5700   -0.9552 H   0  0  0  0  0  0  0  0  0  0  0  0
    1.8432    2.1163    3.0808 H   0  0  0  0  0  0  0  0  0  0  0  0
   -0.0561   -0.2946   -0.9696 H   0  0  0  0  0  0  0  0  0  0  0  0
    0.7497   -4.3573   -1.6508 H   0  0  0  0  0  0  0  0  0  0  0  0
    2.7897   -3.5132    1.9630 H   0  0  0  0  0  0  0  0  0  0  0  0
    2.0708   -1.3421    1.8613 H   0  0  0  0  0  0  0  0  0  0  0  0
    4.2805   -7.5945    1.9181 H   0  0  0  0  0  0  0  0  0  0  0  0
    2.5167   -7.8806    1.9166 H   0  0  0  0  0  0  0  0  0  0  0  0
    2.6943   -5.5816    2.3165 H   0  0  0  0  0  0  0  0  0  0  0  0
    4.1029   -5.3615    1.1746 H   0  0  0  0  0  0  0  0  0  0  0  0
    0.7605   -6.3590   -1.0846 H   0  0  0  0  0  0  0  0  0  0  0  0
    2.4097   -6.0419   -1.8039 H   0  0  0  0  0  0  0  0  0  0  0  0
    2.3098   -8.3859   -1.5460 H   0  0  0  0  0  0  0  0  0  0  0  0
    1.4309   -8.3160    0.0082 H   0  0  0  0  0  0  0  0  0  0  0  0
   -1.1575   -2.2180   -3.7391 H   0  0  0  0  0  0  0  0  0  0  0  0
    0.3602   -3.1695   -3.5632 H   0  0  0  0  0  0  0  0  0  0  0  0
   -1.1698   -3.6439   -2.6415 H   0  0  0  0  0  0  0  0  0  0  0  0
    1.1400    8.3859   -0.5841 H   0  0  0  0  0  0  0  0  0  0  0  0
    0.8660    7.9207    1.1560 H   0  0  0  0  0  0  0  0  0  0  0  0
    2.1707    7.1294    0.1850 H   0  0  0  0  0  0  0  0  0  0  0  0
  1  2  1  0      
  1  8  2  0      
  1  9  1  0      
  2  3  1  0      
  2  7  2  0      
  3  4  2  0      
  3 10  1  0      
  4  5  1  0      
  4 37  1  0      
  5  6  2  0      
  5 38  1  0      
  6  7  1  0      
  6 39  1  0      
  7 40  1  0      
  9 33  1  0      
  9 41  1  0      
 10 13  1  0      
 10 42  1  0      
 12 11  1  0      
 11 16  2  0      
 11 18  1  0      
 13 12  2  0      
 12 43  1  0      
 14 13  1  0      
 14 15  2  0      
 14 17  1  0      
 16 15  1  0      
 15 44  1  0      
 17 34  1  0      
 17 35  1  0      
 17 36  1  0      
 18 19  1  0      
 18 45  1  0      
 19 20  1  0      
 19 24  2  0      
 20 21  2  0      
 20 31  1  0      
 21 22  1  0      
 21 46  1  0      
 22 23  2  0      
 22 28  1  0      
 23 24  1  0      
 23 47  1  0      
 24 48  1  0      
 26 25  1  0      
 25 30  1  0      
 27 26  1  0      
 26 49  1  0      
 26 50  1  0      
 28 27  1  0      
 27 51  1  0      
 27 52  1  0      
 28 29  1  0      
 30 29  1  0      
 29 53  1  0      
 29 54  1  0      
 30 55  1  0      
 30 56  1  0      
 31 32  1  0      
 32 57  1  0      
 32 58  1  0      
 32 59  1  0      
 33 60  1  0      
 33 61  1  0      
 33 62  1  0      
M  END
