
  Chem3D Core 15.012081511153D

 63 65  0  0  0  0  0  0  0  0999 V2000
    5.9151   -2.0418    2.1930 N   0  0  0  0  0  0  0  0  0  0  0  0
    5.7627   -3.0120    1.3899 C   0  0  0  0  0  0  0  0  0  0  0  0
    4.6788   -3.4726    0.9221 N   0  0  0  0  0  0  0  0  0  0  0  0
    3.6315   -2.8867    1.3122 C   0  0  0  0  0  0  0  0  0  0  0  0
    3.6872   -1.8459    2.1648 C   0  0  0  0  0  0  0  0  0  0  0  0
    4.8847   -1.4269    2.6061 C   0  0  0  0  0  0  0  0  0  0  0  0
    2.3895   -3.0067    1.1105 N   0  0  0  0  0  0  0  0  0  0  0  0
    1.7311   -2.1466    1.7618 C   0  0  0  0  0  0  0  0  0  0  0  0
    2.5224   -1.4116    2.4211 N   0  0  0  0  0  0  0  0  0  0  0  0
    4.9277   -0.4453    3.4067 N   0  0  0  0  0  0  0  0  0  0  0  0
    0.1906   -5.7016   -0.0491 C   0  0  0  0  0  0  0  0  0  0  0  0
    1.0947   -5.1248    1.0146 C   0  0  0  0  0  0  0  0  0  0  0  0
    1.7959   -4.0268    0.2388 C   0  0  0  0  0  0  0  0  0  0  0  0
    0.8413   -3.5175   -0.6678 O   0  0  0  0  0  0  0  0  0  0  0  0
   -0.1918   -4.4510   -0.8351 C   0  0  0  0  0  0  0  0  0  0  0  0
    1.9922   -6.0963    1.4912 O   0  0  0  0  0  0  0  0  0  0  0  0
    0.9582   -6.5615   -0.8608 O   0  0  0  0  0  0  0  0  0  0  0  0
   -1.5113   -3.8282   -0.3559 C   0  0  0  0  0  0  0  0  0  0  0  0
   -2.0769   -2.4107   -1.3369 S   0  3  0  0  0  0  0  0  0  0  0  0
   -3.7157   -2.1193   -0.6158 C   0  0  0  0  0  0  0  0  0  0  0  0
   -3.8489   -1.9255    0.9058 C   0  0  0  0  0  0  0  0  0  0  0  0
   -5.2835   -1.5888    1.3655 C   0  0  0  0  0  0  0  0  0  0  0  0
   -5.3020   -1.2852    2.8056 N   0  0  0  0  0  0  0  0  0  0  0  0
   -1.1014   -1.0472   -0.6770 C   0  0  0  0  0  0  0  0  0  0  0  0
   -1.6315    0.2796   -1.1542 C   0  0  0  0  0  0  0  0  0  0  0  0
   -1.0510    1.0032   -2.1231 C   0  0  0  0  0  0  0  0  0  0  0  0
   -1.5385    2.3550   -2.5827 C   0  0  0  0  0  0  0  0  0  0  0  0
   -0.5899    3.3403   -2.2185 O   0  0  0  0  0  0  0  0  0  0  0  0
   -0.9536    4.6365   -2.6553 C   0  0  0  0  0  0  0  0  0  0  0  0
    0.0594    5.6207   -2.2337 C   0  0  0  0  0  0  0  0  0  0  0  0
    0.8959    6.4252   -1.8838 C   0  0  0  0  0  0  0  0  0  0  0  0
   -6.2733   -2.6959    1.0278 C   0  0  0  0  0  0  0  0  0  0  0  0
   -6.6862   -2.8686   -0.0974 O   0  0  0  0  0  0  0  0  0  0  0  0
   -6.5899   -3.4709    2.0871 O   0  0  0  0  0  0  0  0  0  0  0  0
    6.6862   -3.5158    1.0557 H   0  0  0  0  0  0  0  0  0  0  0  0
    0.6393   -2.0694    1.7442 H   0  0  0  0  0  0  0  0  0  0  0  0
    5.8504   -0.0976    3.7663 H   0  0  0  0  0  0  0  0  0  0  0  0
    4.0417    0.0258    3.7144 H   0  0  0  0  0  0  0  0  0  0  0  0
   -0.6654   -6.2853    0.3505 H   0  0  0  0  0  0  0  0  0  0  0  0
    0.5068   -4.7245    1.8708 H   0  0  0  0  0  0  0  0  0  0  0  0
    2.6054   -4.4803   -0.3835 H   0  0  0  0  0  0  0  0  0  0  0  0
   -0.2829   -4.6927   -1.9213 H   0  0  0  0  0  0  0  0  0  0  0  0
    2.3288   -6.5974    0.7428 H   0  0  0  0  0  0  0  0  0  0  0  0
    0.3926   -7.1484   -1.3652 H   0  0  0  0  0  0  0  0  0  0  0  0
   -2.3094   -4.6035   -0.4402 H   0  0  0  0  0  0  0  0  0  0  0  0
   -1.4298   -3.5465    0.7177 H   0  0  0  0  0  0  0  0  0  0  0  0
   -4.3144   -3.0041   -0.9334 H   0  0  0  0  0  0  0  0  0  0  0  0
   -4.1437   -1.2325   -1.1386 H   0  0  0  0  0  0  0  0  0  0  0  0
   -3.1853   -1.0927    1.2361 H   0  0  0  0  0  0  0  0  0  0  0  0
   -3.5189   -2.8456    1.4420 H   0  0  0  0  0  0  0  0  0  0  0  0
   -5.6249   -0.6653    0.8380 H   0  0  0  0  0  0  0  0  0  0  0  0
   -4.5685   -0.5969    3.0454 H   0  0  0  0  0  0  0  0  0  0  0  0
   -6.1925   -0.8357    3.0821 H   0  0  0  0  0  0  0  0  0  0  0  0
   -0.0555   -1.1756   -1.0353 H   0  0  0  0  0  0  0  0  0  0  0  0
   -1.0669   -1.0539    0.4338 H   0  0  0  0  0  0  0  0  0  0  0  0
   -2.5402    0.6670   -0.6644 H   0  0  0  0  0  0  0  0  0  0  0  0
   -0.1372    0.6215   -2.6088 H   0  0  0  0  0  0  0  0  0  0  0  0
   -1.6584    2.3374   -3.6900 H   0  0  0  0  0  0  0  0  0  0  0  0
   -2.5189    2.6022   -2.1164 H   0  0  0  0  0  0  0  0  0  0  0  0
   -1.0217    4.6526   -3.7663 H   0  0  0  0  0  0  0  0  0  0  0  0
   -1.9313    4.9236   -2.2069 H   0  0  0  0  0  0  0  0  0  0  0  0
    1.6480    7.1484   -1.5691 H   0  0  0  0  0  0  0  0  0  0  0  0
   -6.1457   -3.2155    2.9086 H   0  0  0  0  0  0  0  0  0  0  0  0
  1  2  1  0      
  6  1  2  0      
  2  3  2  0      
  2 35  1  0      
  3  4  1  0      
  5  4  2  0      
  4  7  1  0      
  5  6  1  0      
  9  5  1  0      
  6 10  1  0      
  8  7  1  0      
  7 13  1  0      
  8  9  2  0      
  8 36  1  0      
 10 37  1  0      
 10 38  1  0      
 12 11  1  0      
 11 15  1  0      
 11 17  1  0      
 11 39  1  0      
 13 12  1  0      
 12 16  1  0      
 12 40  1  0      
 13 14  1  0      
 13 41  1  0      
 15 14  1  0      
 15 18  1  0      
 15 42  1  0      
 16 43  1  0      
 17 44  1  0      
 18 19  1  0      
 18 45  1  0      
 18 46  1  0      
 19 20  1  0      
 19 24  1  0      
 20 21  1  0      
 20 47  1  0      
 20 48  1  0      
 21 22  1  0      
 21 49  1  0      
 21 50  1  0      
 22 23  1  0      
 22 32  1  0      
 22 51  1  0      
 23 52  1  0      
 23 53  1  0      
 24 25  1  0      
 24 54  1  0      
 24 55  1  0      
 25 26  2  0      
 25 56  1  0      
 26 27  1  0      
 26 57  1  0      
 27 28  1  0      
 27 58  1  0      
 27 59  1  0      
 28 29  1  0      
 29 30  1  0      
 29 60  1  0      
 29 61  1  0      
 30 31  3  0      
 31 62  1  0      
 32 33  2  0      
 32 34  1  0      
 34 63  1  0      
M  CHG  1  19   1
M  END
