
  Chem3D Core 15.002111610003D

 66 70  0  0  0  0  0  0  0  0999 V2000
    4.0051   -1.0944   -2.4224 O   0  0  0  0  0  0  0  0  0  0  0  0
    2.9822   -1.4197   -1.8675 C   0  0  0  0  0  0  0  0  0  0  0  0
    2.6348   -2.7301   -1.9944 N   0  0  0  0  0  0  0  0  0  0  0  0
    1.4758   -3.4185   -2.0412 C   0  0  0  0  0  0  0  0  0  0  0  0
    1.5706   -4.7563   -2.0070 C   0  0  0  0  0  0  0  0  0  0  0  0
    0.4643   -5.5102   -2.0474 C   0  0  0  0  0  0  0  0  0  0  0  0
   -0.7644   -4.9683   -2.1400 C   0  0  0  0  0  0  0  0  0  0  0  0
   -1.9445   -5.9291   -2.1594 C   0  0  0  0  0  0  0  0  0  0  0  0
   -1.9745   -6.7378   -0.9441 N   0  0  0  0  0  0  0  0  0  0  0  0
   -2.2951   -5.9412    0.2311 C   0  0  0  0  0  0  0  0  0  0  0  0
   -2.2840   -6.8077    1.5011 C   0  0  0  0  0  0  0  0  0  0  0  0
   -3.2319   -7.9049    1.3854 N   0  0  0  0  0  0  0  0  0  0  0  0
   -3.2474   -8.7195    2.5903 C   0  0  0  0  0  0  0  0  0  0  0  0
   -2.9164   -8.7029    0.2110 C   0  0  0  0  0  0  0  0  0  0  0  0
   -2.9224   -7.8361   -1.0593 C   0  0  0  0  0  0  0  0  0  0  0  0
   -0.8757   -3.6235   -2.2243 C   0  0  0  0  0  0  0  0  0  0  0  0
   -2.2160   -2.9280   -2.3791 C   0  0  0  0  0  0  0  0  0  0  0  0
   -2.8318   -3.3379   -3.4778 F   0  0  0  0  0  0  0  0  0  0  0  0
   -3.0078   -3.2016   -1.3538 F   0  0  0  0  0  0  0  0  0  0  0  0
   -2.1287   -1.6090   -2.4542 F   0  0  0  0  0  0  0  0  0  0  0  0
    0.2509   -2.8844   -2.1817 C   0  0  0  0  0  0  0  0  0  0  0  0
    2.1768   -0.5147   -1.2398 C   0  0  0  0  0  0  0  0  0  0  0  0
    1.3106   -0.8861   -0.2785 C   0  0  0  0  0  0  0  0  0  0  0  0
    0.5266    0.0138    0.3345 C   0  0  0  0  0  0  0  0  0  0  0  0
    0.5911    1.3198    0.0248 C   0  0  0  0  0  0  0  0  0  0  0  0
   -0.2978    2.3248    0.7253 C   0  0  0  0  0  0  0  0  0  0  0  0
    1.4797    1.7003   -0.9119 C   0  0  0  0  0  0  0  0  0  0  0  0
    1.5861    2.9716   -1.2363 C   0  0  0  0  0  0  0  0  0  0  0  0
    1.6623    4.1484   -1.5172 C   0  0  0  0  0  0  0  0  0  0  0  0
    1.7189    5.4280   -1.8013 C   0  0  0  0  0  0  0  0  0  0  0  0
    2.6267    6.0700   -2.5509 C   0  0  0  0  0  0  0  0  0  0  0  0
    2.3563    7.3050   -2.5994 N   0  0  0  0  0  0  0  0  0  0  0  0
    1.3088    7.4295   -1.8991 C   0  0  0  0  0  0  0  0  0  0  0  0
    0.6354    8.5612   -1.6493 C   0  0  0  0  0  0  0  0  0  0  0  0
   -0.4540    8.4434   -0.8740 C   0  0  0  0  0  0  0  0  0  0  0  0
   -0.7687    7.2172   -0.4228 C   0  0  0  0  0  0  0  0  0  0  0  0
   -0.0925    6.1794   -0.6922 N   0  0  0  0  0  0  0  0  0  0  0  0
    0.9051    6.3235   -1.4094 N   0  0  0  0  0  0  0  0  0  0  0  0
    2.2644    0.7985   -1.5269 C   0  0  0  0  0  0  0  0  0  0  0  0
    3.4164   -3.3550   -2.1210 H   0  0  0  0  0  0  0  0  0  0  0  0
    2.5556   -5.2474   -1.9281 H   0  0  0  0  0  0  0  0  0  0  0  0
    0.5761   -6.6068   -1.9986 H   0  0  0  0  0  0  0  0  0  0  0  0
   -2.9262   -5.4354   -2.3172 H   0  0  0  0  0  0  0  0  0  0  0  0
   -1.7946   -6.5822   -3.0527 H   0  0  0  0  0  0  0  0  0  0  0  0
   -1.5502   -5.1198    0.3604 H   0  0  0  0  0  0  0  0  0  0  0  0
   -3.2987   -5.4643    0.1247 H   0  0  0  0  0  0  0  0  0  0  0  0
   -1.2503   -7.1924    1.6748 H   0  0  0  0  0  0  0  0  0  0  0  0
   -2.5484   -6.1650    2.3754 H   0  0  0  0  0  0  0  0  0  0  0  0
   -4.0051   -9.5324    2.5085 H   0  0  0  0  0  0  0  0  0  0  0  0
   -3.5294   -8.1077    3.4778 H   0  0  0  0  0  0  0  0  0  0  0  0
   -2.2558   -9.1864    2.7902 H   0  0  0  0  0  0  0  0  0  0  0  0
   -3.6689   -9.5194    0.0908 H   0  0  0  0  0  0  0  0  0  0  0  0
   -1.9169   -9.1888    0.3193 H   0  0  0  0  0  0  0  0  0  0  0  0
   -3.9547   -7.4506   -1.2390 H   0  0  0  0  0  0  0  0  0  0  0  0
   -2.6555   -8.4837   -1.9293 H   0  0  0  0  0  0  0  0  0  0  0  0
    0.1649   -1.7947   -2.2980 H   0  0  0  0  0  0  0  0  0  0  0  0
    1.2349   -1.9319    0.0622 H   0  0  0  0  0  0  0  0  0  0  0  0
   -0.1697   -0.3315    1.1170 H   0  0  0  0  0  0  0  0  0  0  0  0
   -0.9739    1.8517    1.4719 H   0  0  0  0  0  0  0  0  0  0  0  0
    0.3152    3.0786    1.2700 H   0  0  0  0  0  0  0  0  0  0  0  0
   -0.9443    2.8554   -0.0105 H   0  0  0  0  0  0  0  0  0  0  0  0
    3.4907    5.6270   -3.0632 H   0  0  0  0  0  0  0  0  0  0  0  0
    0.9568    9.5324   -2.0564 H   0  0  0  0  0  0  0  0  0  0  0  0
   -1.0677    9.3216   -0.6173 H   0  0  0  0  0  0  0  0  0  0  0  0
   -1.6552    7.0726    0.2174 H   0  0  0  0  0  0  0  0  0  0  0  0
    2.9717    1.1646   -2.2911 H   0  0  0  0  0  0  0  0  0  0  0  0
  1  2  2  0      
  2  3  1  0      
  2 22  1  0      
  3  4  1  0      
  3 40  1  0      
  4  5  1  0      
  4 21  2  0      
  5  6  2  0      
  5 41  1  0      
  6  7  1  0      
  6 42  1  0      
  7  8  1  0      
  7 16  2  0      
  8  9  1  0      
  8 43  1  0      
  8 44  1  0      
  9 10  1  0      
  9 15  1  0      
 10 11  1  0      
 10 45  1  0      
 10 46  1  0      
 11 12  1  0      
 11 47  1  0      
 11 48  1  0      
 12 13  1  0      
 12 14  1  0      
 13 49  1  0      
 13 50  1  0      
 13 51  1  0      
 14 15  1  0      
 14 52  1  0      
 14 53  1  0      
 15 54  1  0      
 15 55  1  0      
 16 17  1  0      
 16 21  1  0      
 17 18  1  0      
 17 19  1  0      
 17 20  1  0      
 21 56  1  0      
 22 23  1  0      
 22 39  2  0      
 23 24  2  0      
 23 57  1  0      
 24 25  1  0      
 24 58  1  0      
 25 26  1  0      
 25 27  2  0      
 26 59  1  0      
 26 60  1  0      
 26 61  1  0      
 27 28  1  0      
 27 39  1  0      
 28 29  3  0      
 29 30  1  0      
 30 31  2  0      
 30 38  1  0      
 31 32  1  0      
 31 62  1  0      
 32 33  2  0      
 33 34  1  0      
 33 38  1  0      
 34 35  2  0      
 34 63  1  0      
 35 36  1  0      
 35 64  1  0      
 36 37  2  0      
 36 65  1  0      
 37 38  1  0      
 39 66  1  0      
M  END
