
  Chem3D Core 15.010021516393D

 46 49  0  0  0  0  0  0  0  0999 V2000
   -5.6594    0.6215   -0.2956 C   0  0  0  0  0  0  0  0  0  0  0  0
   -4.6862    0.4562    0.8555 C   0  0  0  0  0  0  0  0  0  0  0  0
   -4.8213   -0.3192    1.7770 O   0  0  0  0  0  0  0  0  0  0  0  0
   -3.6299    1.3168    0.7320 O   0  0  0  0  0  0  0  0  0  0  0  0
   -2.3909    0.7476    0.5598 C   0  0  0  0  0  0  0  0  0  0  0  0
   -1.2735    1.1578    1.1784 C   0  0  0  0  0  0  0  0  0  0  0  0
   -0.2418    0.4151    0.7689 C   0  0  0  0  0  0  0  0  0  0  0  0
    1.1894    0.5196    1.2040 C   0  0  0  0  0  0  0  0  0  0  0  0
    2.0859   -0.0707    0.2069 N   0  0  0  0  0  0  0  0  0  0  0  0
    1.6396   -1.4262   -0.1031 C   0  0  0  0  0  0  0  0  0  0  0  0
    0.2671   -1.4210   -0.8076 C   0  0  0  0  0  0  0  0  0  0  0  0
   -0.6754   -0.4673   -0.1345 C   0  0  0  0  0  0  0  0  0  0  0  0
   -2.1138   -0.3418   -0.3969 S   0  0  0  0  0  0  0  0  0  0  0  0
    3.4866    0.0630    0.6304 C   0  0  0  0  0  0  0  0  0  0  0  0
    4.1179    1.3679    0.1051 C   0  0  0  0  0  0  0  0  0  0  0  0
    5.3264    1.4762    0.1609 O   0  0  0  0  0  0  0  0  0  0  0  0
    3.3085    2.4983   -0.3719 C   0  0  0  0  0  0  0  0  0  0  0  0
    3.8705    3.1046   -1.6370 C   0  0  0  0  0  0  0  0  0  0  0  0
    2.6450    2.2293   -1.6997 C   0  0  0  0  0  0  0  0  0  0  0  0
    4.3483   -1.1493    0.2860 C   0  0  0  0  0  0  0  0  0  0  0  0
    4.6654   -2.0491    1.2365 C   0  0  0  0  0  0  0  0  0  0  0  0
    5.4307   -3.1160    0.9606 C   0  0  0  0  0  0  0  0  0  0  0  0
    5.8965   -3.3006   -0.2830 C   0  0  0  0  0  0  0  0  0  0  0  0
    5.5884   -2.4139   -1.2403 C   0  0  0  0  0  0  0  0  0  0  0  0
    4.8236   -1.3470   -0.9592 C   0  0  0  0  0  0  0  0  0  0  0  0
    4.5238   -0.4985   -1.9279 F   0  0  0  0  0  0  0  0  0  0  0  0
   -6.5242   -0.0701   -0.1805 H   0  0  0  0  0  0  0  0  0  0  0  0
   -6.0520    1.6632   -0.3231 H   0  0  0  0  0  0  0  0  0  0  0  0
   -5.1637    0.3933   -1.2661 H   0  0  0  0  0  0  0  0  0  0  0  0
   -1.2166    1.9720    1.9129 H   0  0  0  0  0  0  0  0  0  0  0  0
    1.4271    1.5941    1.3729 H   0  0  0  0  0  0  0  0  0  0  0  0
    1.2731   -0.0063    2.1849 H   0  0  0  0  0  0  0  0  0  0  0  0
    2.3295   -1.9456   -0.8073 H   0  0  0  0  0  0  0  0  0  0  0  0
    1.5939   -2.0384    0.8292 H   0  0  0  0  0  0  0  0  0  0  0  0
    0.3963   -1.0882   -1.8663 H   0  0  0  0  0  0  0  0  0  0  0  0
   -0.1533   -2.4547   -0.8193 H   0  0  0  0  0  0  0  0  0  0  0  0
    3.5316    0.1866    1.7404 H   0  0  0  0  0  0  0  0  0  0  0  0
    2.8474    3.1389    0.3828 H   0  0  0  0  0  0  0  0  0  0  0  0
    3.7313    4.1764   -1.7722 H   0  0  0  0  0  0  0  0  0  0  0  0
    4.7813    2.7064   -2.0809 H   0  0  0  0  0  0  0  0  0  0  0  0
    2.7520    1.2582   -2.1769 H   0  0  0  0  0  0  0  0  0  0  0  0
    1.6831    2.7112   -1.8688 H   0  0  0  0  0  0  0  0  0  0  0  0
    4.2932   -1.9202    2.2664 H   0  0  0  0  0  0  0  0  0  0  0  0
    5.6764   -3.8413    1.7543 H   0  0  0  0  0  0  0  0  0  0  0  0
    6.5242   -4.1764   -0.5171 H   0  0  0  0  0  0  0  0  0  0  0  0
    5.9631   -2.5647   -2.2664 H   0  0  0  0  0  0  0  0  0  0  0  0
  1  2  1  0      
  1 27  1  0      
  1 28  1  0      
  1 29  1  0      
  2  3  2  0      
  2  4  1  0      
  4  5  1  0      
  5  6  2  0      
 13  5  1  0      
  6  7  1  0      
  6 30  1  0      
  7  8  1  0      
 12  7  2  0      
  9  8  1  0      
  8 31  1  0      
  8 32  1  0      
  9 10  1  0      
  9 14  1  0      
 10 11  1  0      
 10 33  1  0      
 10 34  1  0      
 11 12  1  0      
 11 35  1  0      
 11 36  1  0      
 12 13  1  0      
 14 15  1  0      
 14 20  1  0      
 14 37  1  0      
 15 16  2  0      
 15 17  1  0      
 17 18  1  0      
 17 19  1  0      
 17 38  1  0      
 18 19  1  0      
 18 39  1  0      
 18 40  1  0      
 19 41  1  0      
 19 42  1  0      
 20 21  1  0      
 20 25  2  0      
 21 22  2  0      
 21 43  1  0      
 22 23  1  0      
 22 44  1  0      
 23 24  2  0      
 23 45  1  0      
 24 25  1  0      
 24 46  1  0      
 25 26  1  0      
M  END
