
  Chem3D Core 15.003241614333D

 55 57  0  0  0  0  0  0  0  0999 V2000
   -0.4555    0.5991    0.8070 C   0  0  0  0  0  0  0  0  0  0  0  0
    0.2710   -1.3566   -0.0005 C   0  0  0  0  0  0  0  0  0  0  0  0
    0.4768   -0.2054    0.5008 N   0  0  0  0  0  0  0  0  0  0  0  0
   -0.9021   -1.7819   -0.2369 N   0  0  0  0  0  0  0  0  0  0  0  0
    1.2938   -2.0726   -0.2512 N   0  0  0  0  0  0  0  0  0  0  0  0
    1.2616   -3.4638   -0.7813 C   0  0  0  0  0  0  0  0  0  0  0  0
    0.9274   -3.4406   -2.2744 C   0  0  0  0  0  0  0  0  0  0  0  0
    2.5921   -4.1558   -0.3952 C   0  0  0  0  0  0  0  0  0  0  0  0
    2.4320   -5.6725   -0.1824 C   0  0  0  0  0  0  0  0  0  0  0  0
    3.7439   -3.8645   -1.3706 C   0  0  0  0  0  0  0  0  0  0  0  0
    0.8209   -4.7545   -2.7801 O   0  0  0  0  0  0  0  0  0  0  0  0
   -0.3487    1.7518    1.3360 N   0  0  0  0  0  0  0  0  0  0  0  0
    0.6150    2.4823    1.7359 C   0  0  0  0  0  0  0  0  0  0  0  0
    0.2748    3.6671    2.2718 C   0  0  0  0  0  0  0  0  0  0  0  0
    1.2032    4.5130    2.7426 C   0  0  0  0  0  0  0  0  0  0  0  0
    2.5209    4.2286    2.7017 C   0  0  0  0  0  0  0  0  0  0  0  0
    2.8676    3.0415    2.1537 C   0  0  0  0  0  0  0  0  0  0  0  0
    1.9279    2.1965    1.6869 C   0  0  0  0  0  0  0  0  0  0  0  0
    4.5020    2.4786    1.9961 Cl  0  0  0  0  0  0  0  0  0  0  0  0
    3.4106    5.1399    3.2074 C   0  0  0  0  0  0  0  0  0  0  0  0
    3.0559    6.1947    3.6941 O   0  0  0  0  0  0  0  0  0  0  0  0
    4.7543    4.9718    3.2244 O   0  0  0  0  0  0  0  0  0  0  0  0
   -1.7058    0.1774    0.5511 C   0  0  0  0  0  0  0  0  0  0  0  0
   -1.8895   -1.0427    0.0178 C   0  0  0  0  0  0  0  0  0  0  0  0
   -3.7015   -0.0585    0.3342 C   0  0  0  0  0  0  0  0  0  0  0  0
   -2.8211    0.7552    0.7370 N   0  0  0  0  0  0  0  0  0  0  0  0
   -3.1482   -1.1156   -0.0875 N   0  0  0  0  0  0  0  0  0  0  0  0
   -3.1532   -3.1950   -1.5790 C   0  0  0  0  0  0  0  0  0  0  0  0
   -3.9101   -2.2638   -0.6174 C   0  0  0  0  0  0  0  0  0  0  0  0
   -4.5037   -3.0724    0.5486 C   0  0  0  0  0  0  0  0  0  0  0  0
    2.2262   -1.6411   -0.0299 H   0  0  0  0  0  0  0  0  0  0  0  0
    0.4425   -3.9958   -0.2379 H   0  0  0  0  0  0  0  0  0  0  0  0
   -0.0515   -2.9503   -2.4701 H   0  0  0  0  0  0  0  0  0  0  0  0
    1.6940   -2.9030   -2.8722 H   0  0  0  0  0  0  0  0  0  0  0  0
    2.8952   -3.7497    0.6059 H   0  0  0  0  0  0  0  0  0  0  0  0
    3.3868   -6.1331    0.1608 H   0  0  0  0  0  0  0  0  0  0  0  0
    1.6668   -5.8960    0.5959 H   0  0  0  0  0  0  0  0  0  0  0  0
    2.1299   -6.1947   -1.1161 H   0  0  0  0  0  0  0  0  0  0  0  0
    4.7118   -4.2493   -0.9755 H   0  0  0  0  0  0  0  0  0  0  0  0
    3.8661   -2.7706   -1.5407 H   0  0  0  0  0  0  0  0  0  0  0  0
    3.5790   -4.3556   -2.3557 H   0  0  0  0  0  0  0  0  0  0  0  0
    0.5292   -4.7231   -3.6941 H   0  0  0  0  0  0  0  0  0  0  0  0
   -1.2820    2.2105    1.4917 H   0  0  0  0  0  0  0  0  0  0  0  0
   -0.7849    3.9699    2.3451 H   0  0  0  0  0  0  0  0  0  0  0  0
    0.8184    5.4551    3.1689 H   0  0  0  0  0  0  0  0  0  0  0  0
    2.2668    1.2434    1.2570 H   0  0  0  0  0  0  0  0  0  0  0  0
    5.1544    5.7545    3.6361 H   0  0  0  0  0  0  0  0  0  0  0  0
   -4.7848    0.1061    0.3444 H   0  0  0  0  0  0  0  0  0  0  0  0
   -2.6712   -2.6202   -2.4026 H   0  0  0  0  0  0  0  0  0  0  0  0
   -2.3725   -3.7916   -1.0566 H   0  0  0  0  0  0  0  0  0  0  0  0
   -3.8453   -3.9298   -2.0508 H   0  0  0  0  0  0  0  0  0  0  0  0
   -4.7589   -1.8346   -1.2100 H   0  0  0  0  0  0  0  0  0  0  0  0
   -5.1279   -3.9182    0.1799 H   0  0  0  0  0  0  0  0  0  0  0  0
   -5.1544   -2.4388    1.1939 H   0  0  0  0  0  0  0  0  0  0  0  0
   -3.6972   -3.4947    1.1904 H   0  0  0  0  0  0  0  0  0  0  0  0
  1  3  2  0      
  1 12  1  0      
 23  1  1  0      
  3  2  1  0      
  2  4  2  0      
  2  5  1  0      
  4 24  1  0      
  5  6  1  0      
  5 31  1  0      
  6  7  1  0      
  6  8  1  0      
  6 32  1  0      
  7 11  1  0      
  7 33  1  0      
  7 34  1  0      
  8  9  1  0      
  8 10  1  0      
  8 35  1  0      
  9 36  1  0      
  9 37  1  0      
  9 38  1  0      
 10 39  1  0      
 10 40  1  0      
 10 41  1  0      
 11 42  1  0      
 12 13  1  0      
 12 43  1  0      
 13 14  1  0      
 13 18  2  0      
 14 15  2  0      
 14 44  1  0      
 15 16  1  0      
 15 45  1  0      
 16 17  2  0      
 16 20  1  0      
 17 18  1  0      
 17 19  1  0      
 18 46  1  0      
 20 21  2  0      
 20 22  1  0      
 22 47  1  0      
 23 24  2  0      
 26 23  1  0      
 24 27  1  0      
 25 26  2  0      
 25 27  1  0      
 25 48  1  0      
 27 29  1  0      
 28 29  1  0      
 28 49  1  0      
 28 50  1  0      
 28 51  1  0      
 29 30  1  0      
 29 52  1  0      
 30 53  1  0      
 30 54  1  0      
 30 55  1  0      
M  END
