
  Chem3D Core 15.004111617223D

  0  0  0     0  0              0 V3000
M  V30 BEGIN CTAB
M  V30 COUNTS 51 53 0 0 0
M  V30 BEGIN ATOM
M  V30 1 C 1.146061 -2.328569 2.652140 0
M  V30 2 O -0.204895 -2.045860 2.372316 0
M  V30 3 C -1.130103 -3.068378 2.375773 0
M  V30 4 C -0.757163 -4.355650 2.222575 0
M  V30 5 C -1.611234 -5.379018 2.343103 0
M  V30 6 C -2.884423 -5.138207 2.672143 0
M  V30 7 F -3.730825 -6.150418 2.799428 0
M  V30 8 C -3.282676 -3.867686 2.863311 0
M  V30 9 F -4.570743 -3.680529 3.123133 0
M  V30 10 C -2.433533 -2.827324 2.686109 0
M  V30 11 C -2.882161 -1.547029 2.909514 0
M  V30 12 O -3.741174 -1.370832 3.755312 0
M  V30 13 C -2.404618 -0.446497 2.242195 0
M  V30 14 C -2.526160 0.780831 2.784924 0
M  V30 15 N -2.098142 1.833885 2.233335 0
M  V30 16 C -1.535118 1.760093 1.099684 0
M  V30 17 N -1.106035 2.842337 0.586892 0
M  V30 18 C -0.428549 2.952563 -0.726671 0
M  V30 19 C -0.439731 4.415395 -1.192167 0
M  V30 20 C 0.333511 4.574133 -2.511606 0
M  V30 21 N 1.702963 4.081947 -2.447081 0
M  V30 22 C 1.731191 2.693905 -2.006752 0
M  V30 23 C 1.024850 2.464097 -0.660897 0
M  V30 24 S 2.781441 5.101622 -1.616740 0
M  V30 25 C 3.782574 5.709804 -3.047369 0
M  V30 26 O 2.295443 6.416208 -1.208876 0
M  V30 27 O 3.895785 4.473420 -0.913178 0
M  V30 28 N -1.422926 0.644034 0.507198 0
M  V30 29 C -1.843521 -0.440656 1.012306 0
M  V30 30 N -1.772155 -1.477655 0.282684 0
M  V30 31 H 1.621146 -2.858391 1.797285 0
M  V30 32 H 1.673698 -1.356787 2.780956 0
M  V30 33 H 1.231884 -2.904693 3.600317 0
M  V30 34 H 0.288576 -4.621473 2.001719 0
M  V30 35 H -1.265516 -6.416208 2.198655 0
M  V30 36 H -2.980966 0.956272 3.774512 0
M  V30 37 H -1.250647 3.715084 1.154067 0
M  V30 38 H -1.000991 2.344902 -1.468984 0
M  V30 39 H -1.492715 4.761652 -1.323626 0
M  V30 40 H 0.013680 5.060244 -0.403564 0
M  V30 41 H 0.305246 5.638758 -2.845872 0
M  V30 42 H -0.212994 4.014011 -3.309081 0
M  V30 43 H 2.777248 2.307563 -1.960610 0
M  V30 44 H 1.231966 2.059631 -2.779289 0
M  V30 45 H 1.562384 3.004717 0.152783 0
M  V30 46 H 1.058693 1.379711 -0.401239 0
M  V30 47 H 4.570743 6.414665 -2.697774 0
M  V30 48 H 4.266858 4.849427 -3.562617 0
M  V30 49 H 3.122149 6.234612 -3.774512 0
M  V30 50 H -1.346965 -1.406348 -0.673959 0
M  V30 51 H -2.134688 -2.413559 0.582871 0
M  V30 END ATOM
M  V30 BEGIN BOND
M  V30 1 1 1 2
M  V30 2 1 1 31
M  V30 3 1 1 32
M  V30 4 1 1 33
M  V30 5 1 2 3
M  V30 6 1 3 4
M  V30 7 2 3 10
M  V30 8 2 4 5
M  V30 9 1 4 34
M  V30 10 1 5 6
M  V30 11 1 5 35
M  V30 12 1 6 7
M  V30 13 2 6 8
M  V30 14 1 8 9
M  V30 15 1 8 10
M  V30 16 1 10 11
M  V30 17 2 11 12
M  V30 18 1 11 13
M  V30 19 2 13 14
M  V30 20 1 29 13
M  V30 21 1 14 15
M  V30 22 1 14 36
M  V30 23 2 15 16
M  V30 24 1 16 17
M  V30 25 1 16 28
M  V30 26 1 17 18
M  V30 27 1 17 37
M  V30 28 1 19 18
M  V30 29 1 18 23
M  V30 30 1 18 38
M  V30 31 1 20 19
M  V30 32 1 19 39
M  V30 33 1 19 40
M  V30 34 1 21 20
M  V30 35 1 20 41
M  V30 36 1 20 42
M  V30 37 1 21 22
M  V30 38 1 21 24
M  V30 39 1 23 22
M  V30 40 1 22 43
M  V30 41 1 22 44
M  V30 42 1 23 45
M  V30 43 1 23 46
M  V30 44 1 24 25
M  V30 45 2 24 26
M  V30 46 2 24 27
M  V30 47 1 25 47
M  V30 48 1 25 48
M  V30 49 1 25 49
M  V30 50 2 29 28
M  V30 51 1 29 30
M  V30 52 1 30 50
M  V30 53 1 30 51
M  V30 END BOND
M  V30 END CTAB
M  END
