
  Chem3D Core 15.003291616483D

  0  0  0     0  0              0 V3000
M  V30 BEGIN CTAB
M  V30 COUNTS 42 44 0 0 0
M  V30 BEGIN ATOM
M  V30 1 C -1.771969 0.792309 -0.002709 0
M  V30 2 C -2.932847 1.479429 -0.196832 0
M  V30 3 C -4.107702 0.831048 -0.202727 0
M  V30 4 C -4.224151 -0.486208 -0.024209 0
M  V30 5 C -3.079596 -1.161811 0.153666 0
M  V30 6 C -1.864100 -0.560218 0.163131 0
M  V30 7 O -5.450368 -1.080561 -0.044452 0
M  V30 8 O -3.041635 2.829024 -0.384648 0
M  V30 9 C -0.575094 1.488055 0.015286 0
M  V30 10 O -0.572246 2.690460 -0.173989 0
M  V30 11 O 0.675202 0.935210 0.266158 0
M  V30 12 C 2.910867 1.156482 1.284352 0
M  V30 13 C 1.801921 1.772779 0.399327 0
M  V30 14 C 2.316052 2.201947 -0.978060 0
M  V30 15 C 4.396172 -2.020404 0.184399 0
M  V30 16 C 3.421780 -2.465021 -0.629536 0
M  V30 17 C 2.133761 -2.148215 -0.410604 0
M  V30 18 C 1.119513 -2.392125 -1.252437 0
M  V30 19 C -0.660237 -1.484653 0.328847 0
M  V30 20 C -0.180692 -2.064066 -1.013005 0
M  V30 21 O -1.009492 -2.246504 -1.881537 0
M  V30 22 Cl -3.298622 -2.874094 0.368965 0
M  V30 23 H 4.196817 0.399855 -0.383930 0
M  V30 24 C 3.864776 0.161435 0.632486 0
M  V30 25 O 5.154791 0.002346 1.463120 0
M  V30 26 C 4.088134 -1.082543 1.248282 0
M  V30 27 H 3.730787 -1.422319 2.221219 0
M  V30 28 H -5.036678 1.407032 -0.358115 0
M  V30 29 H -5.358946 -2.044197 0.018781 0
M  V30 30 H -3.975433 3.072234 -0.491043 0
M  V30 31 H 3.559340 2.006096 1.616840 0
M  V30 32 H 2.458637 0.730901 2.210464 0
M  V30 33 H 1.497255 2.684918 0.972901 0
M  V30 34 H 3.260120 2.786370 -0.889615 0
M  V30 35 H 1.592733 2.847167 -1.523656 0
M  V30 36 H 2.506285 1.321392 -1.632210 0
M  V30 37 H 5.450368 -2.289352 0.007713 0
M  V30 38 H 3.703031 -3.072234 -1.506348 0
M  V30 39 H 1.900807 -1.618539 0.519415 0
M  V30 40 H 1.356199 -2.867807 -2.221219 0
M  V30 41 H 0.090846 -1.035786 0.994955 0
M  V30 42 H -0.893062 -2.369137 0.961158 0
M  V30 END ATOM
M  V30 BEGIN BOND
M  V30 1 2 1 2
M  V30 2 1 1 6
M  V30 3 1 1 9
M  V30 4 1 2 3
M  V30 5 1 2 8
M  V30 6 2 3 4
M  V30 7 1 3 28
M  V30 8 1 4 5
M  V30 9 1 4 7
M  V30 10 2 5 6
M  V30 11 1 5 22
M  V30 12 1 6 19
M  V30 13 1 7 29
M  V30 14 1 8 30
M  V30 15 2 9 10
M  V30 16 1 9 11
M  V30 17 1 11 13
M  V30 18 1 12 13
M  V30 19 1 12 24
M  V30 20 1 12 31
M  V30 21 1 12 32
M  V30 22 1 13 14
M  V30 23 1 13 33
M  V30 24 1 14 34
M  V30 25 1 14 35
M  V30 26 1 14 36
M  V30 27 2 15 16
M  V30 28 1 15 26
M  V30 29 1 15 37
M  V30 30 1 16 17
M  V30 31 1 16 38
M  V30 32 2 17 18
M  V30 33 1 17 39
M  V30 34 1 18 20
M  V30 35 1 18 40
M  V30 36 1 19 20
M  V30 37 1 19 41
M  V30 38 1 19 42
M  V30 39 2 20 21
M  V30 40 1 24 23
M  V30 41 1 24 25
M  V30 42 1 24 26
M  V30 43 1 25 26
M  V30 44 1 26 27
M  V30 END BOND
M  V30 END CTAB
M  END
