
  Chem3D Core 15.003241614493D

 60 64  0  0  0  0  0  0  0  0999 V2000
    2.5167    2.6094    3.3103 O   0  0  0  0  0  0  0  0  0  0  0  0
    2.1795    1.6751    2.6222 C   0  0  0  0  0  0  0  0  0  0  0  0
    0.8951    1.7221    2.1683 N   0  0  0  0  0  0  0  0  0  0  0  0
   -0.0438    0.8334    1.7774 C   0  0  0  0  0  0  0  0  0  0  0  0
    0.0148   -0.4952    1.9546 C   0  0  0  0  0  0  0  0  0  0  0  0
   -0.9458   -1.3038    1.4802 C   0  0  0  0  0  0  0  0  0  0  0  0
   -0.8716   -2.8034    1.6789 C   0  0  0  0  0  0  0  0  0  0  0  0
   -0.0644   -3.1606    2.6653 F   0  0  0  0  0  0  0  0  0  0  0  0
   -2.0584   -3.3401    1.9172 F   0  0  0  0  0  0  0  0  0  0  0  0
   -0.4080   -3.3598    0.5692 F   0  0  0  0  0  0  0  0  0  0  0  0
   -2.0232   -0.7381    0.9074 C   0  0  0  0  0  0  0  0  0  0  0  0
   -2.1764    0.5943    0.7526 C   0  0  0  0  0  0  0  0  0  0  0  0
   -3.2125    1.1092    0.1950 N   0  0  0  0  0  0  0  0  0  0  0  0
   -3.4789    2.3415   -0.0173 C   0  0  0  0  0  0  0  0  0  0  0  0
   -4.6643    2.4374   -0.6315 C   0  0  0  0  0  0  0  0  0  0  0  0
   -5.3880    3.6627   -1.0941 C   0  0  0  0  0  0  0  0  0  0  0  0
   -5.1227    1.2750   -0.7984 N   0  0  0  0  0  0  0  0  0  0  0  0
   -4.2387    0.5243   -0.2952 C   0  0  0  0  0  0  0  0  0  0  0  0
   -1.1530    1.3456    1.2137 C   0  0  0  0  0  0  0  0  0  0  0  0
    2.9908    0.5956    2.4246 C   0  0  0  0  0  0  0  0  0  0  0  0
    3.9947    0.3340    3.2787 C   0  0  0  0  0  0  0  0  0  0  0  0
    4.7682   -0.7447    3.0956 C   0  0  0  0  0  0  0  0  0  0  0  0
    4.5736   -1.5921    2.0693 C   0  0  0  0  0  0  0  0  0  0  0  0
    5.4771   -2.8060    1.9587 C   0  0  0  0  0  0  0  0  0  0  0  0
    3.5932   -1.3269    1.1761 C   0  0  0  0  0  0  0  0  0  0  0  0
    3.4305   -2.1538    0.2186 N   0  0  0  0  0  0  0  0  0  0  0  0
    2.6618   -2.2877   -0.7911 C   0  0  0  0  0  0  0  0  0  0  0  0
    2.8580   -3.3547   -1.4541 N   0  0  0  0  0  0  0  0  0  0  0  0
    2.1357   -3.6063   -2.4570 C   0  0  0  0  0  0  0  0  0  0  0  0
    1.1701   -2.7721   -2.8602 C   0  0  0  0  0  0  0  0  0  0  0  0
    0.9984   -1.6382   -2.1566 C   0  0  0  0  0  0  0  0  0  0  0  0
    0.0912   -0.6778   -2.4660 C   0  0  0  0  0  0  0  0  0  0  0  0
    0.0590    0.3834   -1.7641 N   0  0  0  0  0  0  0  0  0  0  0  0
   -0.7577    1.3008   -2.0654 C   0  0  0  0  0  0  0  0  0  0  0  0
   -1.6161    1.1817   -3.0872 C   0  0  0  0  0  0  0  0  0  0  0  0
   -1.6263    0.1386   -3.7987 N   0  0  0  0  0  0  0  0  0  0  0  0
   -0.7856   -0.7579   -3.4919 C   0  0  0  0  0  0  0  0  0  0  0  0
    1.7568   -1.4710   -1.1499 N   0  0  0  0  0  0  0  0  0  0  0  0
    2.8502   -0.2186    1.3618 C   0  0  0  0  0  0  0  0  0  0  0  0
    0.5251    2.6593    2.1139 H   0  0  0  0  0  0  0  0  0  0  0  0
    0.8533   -0.9498    2.4996 H   0  0  0  0  0  0  0  0  0  0  0  0
   -2.7891   -1.4468    0.5623 H   0  0  0  0  0  0  0  0  0  0  0  0
   -2.8462    3.1926    0.2518 H   0  0  0  0  0  0  0  0  0  0  0  0
   -4.7116    4.5469   -1.1038 H   0  0  0  0  0  0  0  0  0  0  0  0
   -5.7824    3.5221   -2.1260 H   0  0  0  0  0  0  0  0  0  0  0  0
   -6.2417    3.8834   -0.4141 H   0  0  0  0  0  0  0  0  0  0  0  0
   -4.3889   -0.5613   -0.3090 H   0  0  0  0  0  0  0  0  0  0  0  0
   -1.1704    2.4429    1.1279 H   0  0  0  0  0  0  0  0  0  0  0  0
    4.1936    0.9667    4.1600 H   0  0  0  0  0  0  0  0  0  0  0  0
    5.5688   -0.9410    3.8286 H   0  0  0  0  0  0  0  0  0  0  0  0
    6.2417   -2.8551    2.7655 H   0  0  0  0  0  0  0  0  0  0  0  0
    4.8835   -3.7460    2.0303 H   0  0  0  0  0  0  0  0  0  0  0  0
    6.0377   -2.7955    0.9962 H   0  0  0  0  0  0  0  0  0  0  0  0
    4.0969   -2.9644    0.2705 H   0  0  0  0  0  0  0  0  0  0  0  0
    2.3367   -4.5469   -2.9964 H   0  0  0  0  0  0  0  0  0  0  0  0
    0.5880   -3.0525   -3.7492 H   0  0  0  0  0  0  0  0  0  0  0  0
   -0.7427    2.2147   -1.4502 H   0  0  0  0  0  0  0  0  0  0  0  0
   -2.3298    1.9836   -3.3360 H   0  0  0  0  0  0  0  0  0  0  0  0
   -0.8463   -1.6305   -4.1600 H   0  0  0  0  0  0  0  0  0  0  0  0
    2.0877    0.0536    0.6237 H   0  0  0  0  0  0  0  0  0  0  0  0
  1  2  2  0      
  2  3  1  0      
  2 20  1  0      
  3  4  1  0      
  3 40  1  0      
  4  5  1  0      
  4 19  2  0      
  5  6  2  0      
  5 41  1  0      
  6  7  1  0      
  6 11  1  0      
  7  8  1  0      
  7  9  1  0      
  7 10  1  0      
 11 12  2  0      
 11 42  1  0      
 12 13  1  0      
 12 19  1  0      
 14 13  1  0      
 13 18  1  0      
 15 14  2  0      
 14 43  1  0      
 15 16  1  0      
 15 17  1  0      
 16 44  1  0      
 16 45  1  0      
 16 46  1  0      
 18 17  2  0      
 18 47  1  0      
 19 48  1  0      
 20 21  1  0      
 20 39  2  0      
 21 22  2  0      
 21 49  1  0      
 22 23  1  0      
 22 50  1  0      
 23 24  1  0      
 23 25  2  0      
 24 51  1  0      
 24 52  1  0      
 24 53  1  0      
 25 26  1  0      
 25 39  1  0      
 26 27  1  0      
 26 54  1  0      
 28 27  2  0      
 27 38  1  0      
 29 28  1  0      
 30 29  2  0      
 29 55  1  0      
 31 30  1  0      
 30 56  1  0      
 31 32  1  0      
 31 38  2  0      
 32 33  2  0      
 32 37  1  0      
 33 34  1  0      
 34 35  2  0      
 34 57  1  0      
 35 36  1  0      
 35 58  1  0      
 36 37  2  0      
 37 59  1  0      
 39 60  1  0      
M  END
