
  Chem3D Core 15.003181609553D

 53 55  0  0  0  0  0  0  0  0999 V2000
   -2.3816    3.1579    2.9664 C   0  0  0  0  0  0  0  0  0  0  0  0
   -0.8110    1.8100    1.8497 C   0  0  0  0  0  0  0  0  0  0  0  0
   -2.9653    1.6118    1.3045 C   0  0  0  0  0  0  0  0  0  0  0  0
   -3.3385    2.5410    2.2106 C   0  0  0  0  0  0  0  0  0  0  0  0
   -1.7480    1.3008    1.1730 N   0  0  0  0  0  0  0  0  0  0  0  0
   -2.6684    3.9887    3.7999 O   0  0  0  0  0  0  0  0  0  0  0  0
   -4.6263    2.9308    2.4477 O   0  0  0  0  0  0  0  0  0  0  0  0
   -3.8528    0.9427    0.5054 C   0  0  0  0  0  0  0  0  0  0  0  0
   -5.0440    1.1358    0.4804 O   0  0  0  0  0  0  0  0  0  0  0  0
   -3.2870   -0.0088   -0.3022 N   0  0  0  0  0  0  0  0  0  0  0  0
    0.1599   -0.2605    1.2339 N   0  0  0  0  0  0  0  0  0  0  0  0
    1.1778    1.9637    0.4196 C   0  0  0  0  0  0  0  0  0  0  0  0
    0.5409    1.1380    1.5545 C   0  0  0  0  0  0  0  0  0  0  0  0
    1.4895    0.9953    2.7579 C   0  0  0  0  0  0  0  0  0  0  0  0
    0.2745   -0.8963    0.0345 C   0  0  0  0  0  0  0  0  0  0  0  0
   -0.6495   -1.6067   -0.2846 O   0  0  0  0  0  0  0  0  0  0  0  0
   -1.0728    2.8058    2.7264 N   0  0  0  0  0  0  0  0  0  0  0  0
   -0.0246    3.5881    3.3856 C   0  0  0  0  0  0  0  0  0  0  0  0
   -4.0611   -0.7980   -1.2602 C   0  0  0  0  0  0  0  0  0  0  0  0
   -3.0770   -1.5524   -2.1203 C   0  0  0  0  0  0  0  0  0  0  0  0
   -2.0986   -3.5459   -2.8436 C   0  0  0  0  0  0  0  0  0  0  0  0
   -3.0018   -2.8946   -2.0943 C   0  0  0  0  0  0  0  0  0  0  0  0
   -2.2266   -0.8767   -2.9134 C   0  0  0  0  0  0  0  0  0  0  0  0
   -1.3240   -1.5248   -3.6654 C   0  0  0  0  0  0  0  0  0  0  0  0
   -1.2533   -2.8643   -3.6321 C   0  0  0  0  0  0  0  0  0  0  0  0
   -0.3618   -3.5057   -4.3701 F   0  0  0  0  0  0  0  0  0  0  0  0
    1.3921   -0.7712   -0.7305 C   0  0  0  0  0  0  0  0  0  0  0  0
    3.3076   -0.6923   -1.1886 C   0  0  0  0  0  0  0  0  0  0  0  0
    2.7263   -1.1012   -2.2328 N   0  0  0  0  0  0  0  0  0  0  0  0
    1.5138   -1.1851   -1.9235 N   0  0  0  0  0  0  0  0  0  0  0  0
    2.5050   -0.5109   -0.2829 O   0  0  0  0  0  0  0  0  0  0  0  0
    4.7872   -0.4798   -1.1224 C   0  0  0  0  0  0  0  0  0  0  0  0
   -5.2845    2.4789    1.9044 H   0  0  0  0  0  0  0  0  0  0  0  0
   -2.2846   -0.2054   -0.2469 H   0  0  0  0  0  0  0  0  0  0  0  0
   -0.5307   -0.6838    1.8530 H   0  0  0  0  0  0  0  0  0  0  0  0
    2.2477    1.7245    0.2491 H   0  0  0  0  0  0  0  0  0  0  0  0
    1.1768    3.0496    0.6588 H   0  0  0  0  0  0  0  0  0  0  0  0
    0.6182    1.8591   -0.5374 H   0  0  0  0  0  0  0  0  0  0  0  0
    0.9529    0.6019    3.6512 H   0  0  0  0  0  0  0  0  0  0  0  0
    2.3085    0.2783    2.5208 H   0  0  0  0  0  0  0  0  0  0  0  0
    2.0098    1.9330    3.0400 H   0  0  0  0  0  0  0  0  0  0  0  0
   -0.3237    4.6468    3.5505 H   0  0  0  0  0  0  0  0  0  0  0  0
    0.2355    3.1375    4.3701 H   0  0  0  0  0  0  0  0  0  0  0  0
    0.8807    3.6887    2.7535 H   0  0  0  0  0  0  0  0  0  0  0  0
   -4.7435   -1.4847   -0.7097 H   0  0  0  0  0  0  0  0  0  0  0  0
   -4.6776   -0.1350   -1.9104 H   0  0  0  0  0  0  0  0  0  0  0  0
   -2.0462   -4.6468   -2.8079 H   0  0  0  0  0  0  0  0  0  0  0  0
   -3.6785   -3.4744   -1.4454 H   0  0  0  0  0  0  0  0  0  0  0  0
   -2.2614    0.2251   -2.9432 H   0  0  0  0  0  0  0  0  0  0  0  0
   -0.6320   -0.9549   -4.3073 H   0  0  0  0  0  0  0  0  0  0  0  0
    5.2845   -0.7183   -2.0895 H   0  0  0  0  0  0  0  0  0  0  0  0
    5.0067    0.5825   -0.8701 H   0  0  0  0  0  0  0  0  0  0  0  0
    5.2302   -1.1283   -0.3330 H   0  0  0  0  0  0  0  0  0  0  0  0
  1  4  1  0      
  1  6  2  0      
 17  1  1  0      
  5  2  2  0      
  2 13  1  0      
 17  2  1  0      
  4  3  2  0      
  3  5  1  0      
  3  8  1  0      
  4  7  1  0      
  7 33  1  0      
  8  9  2  0      
  8 10  1  0      
 10 19  1  0      
 10 34  1  0      
 11 13  1  0      
 11 15  1  0      
 11 35  1  0      
 12 13  1  0      
 12 36  1  0      
 12 37  1  0      
 12 38  1  0      
 13 14  1  0      
 14 39  1  0      
 14 40  1  0      
 14 41  1  0      
 15 16  2  0      
 15 27  1  0      
 17 18  1  0      
 18 42  1  0      
 18 43  1  0      
 18 44  1  0      
 19 20  1  0      
 19 45  1  0      
 19 46  1  0      
 20 22  1  0      
 20 23  2  0      
 22 21  2  0      
 21 25  1  0      
 21 47  1  0      
 22 48  1  0      
 24 23  1  0      
 23 49  1  0      
 25 24  2  0      
 24 50  1  0      
 25 26  1  0      
 30 27  2  0      
 27 31  1  0      
 28 29  2  0      
 28 31  1  0      
 28 32  1  0      
 29 30  1  0      
 32 51  1  0      
 32 52  1  0      
 32 53  1  0      
M  END
