
  Chem3D Core 15.003291611153D

 62 64  0  0  0  0  0  0  0  0999 V2000
   -1.4227   -0.9461    2.8540 O   0  0  0  0  0  0  0  0  0  0  0  0
   -1.0751    2.0195    4.9184 O   0  0  0  0  0  0  0  0  0  0  0  0
   -2.6057    0.3513    4.9055 O   0  0  0  0  0  0  0  0  0  0  0  0
    0.5030   -2.2064   -2.9601 O   0  0  0  0  0  0  0  0  0  0  0  0
   -1.5247   -1.3170   -2.5287 O   0  0  0  0  0  0  0  0  0  0  0  0
   -2.6996    0.6858    1.9841 N   0  0  0  0  0  0  0  0  0  0  0  0
   -0.9178   -0.1587   -0.2387 N   0  0  0  0  0  0  0  0  0  0  0  0
   -3.6947    1.1461    1.0190 C   0  0  0  0  0  0  0  0  0  0  0  0
   -4.2605    2.4743    1.5718 C   0  0  0  0  0  0  0  0  0  0  0  0
   -2.4382    1.7433    2.9581 C   0  0  0  0  0  0  0  0  0  0  0  0
   -3.7449    2.5409    3.0185 C   0  0  0  0  0  0  0  0  0  0  0  0
   -4.9173    0.2191    0.8616 C   0  0  0  0  0  0  0  0  0  0  0  0
   -5.7874    2.3746    1.4776 C   0  0  0  0  0  0  0  0  0  0  0  0
   -1.9760   -0.4760    1.8954 C   0  0  0  0  0  0  0  0  0  0  0  0
   -6.0606    0.8754    1.6468 C   0  0  0  0  0  0  0  0  0  0  0  0
   -1.9317    1.3771    4.3513 C   0  0  0  0  0  0  0  0  0  0  0  0
   -1.8189   -1.0663    0.4920 C   0  0  0  0  0  0  0  0  0  0  0  0
   -1.4856   -2.5702    0.5256 C   0  0  0  0  0  0  0  0  0  0  0  0
    0.2062   -0.6652   -1.0362 C   0  0  0  0  0  0  0  0  0  0  0  0
   -0.3441   -1.4036   -2.2591 C   0  0  0  0  0  0  0  0  0  0  0  0
    1.2901   -1.3039   -0.1411 C   0  0  0  0  0  0  0  0  0  0  0  0
    2.5758   -0.4584   -0.0326 C   0  0  0  0  0  0  0  0  0  0  0  0
    3.7612   -1.0994    0.6681 C   0  0  0  0  0  0  0  0  0  0  0  0
    1.8030   -1.8075   -3.3051 C   0  0  0  0  0  0  0  0  0  0  0  0
    4.9912   -0.5823    0.4781 C   0  0  0  0  0  0  0  0  0  0  0  0
    3.6527   -2.1692    1.4772 C   0  0  0  0  0  0  0  0  0  0  0  0
    6.0741   -1.1123    1.0676 C   0  0  0  0  0  0  0  0  0  0  0  0
    4.7288   -2.7079    2.0714 C   0  0  0  0  0  0  0  0  0  0  0  0
    5.9451   -2.1808    1.8672 C   0  0  0  0  0  0  0  0  0  0  0  0
    1.8203   -0.4730   -4.0462 C   0  0  0  0  0  0  0  0  0  0  0  0
   -3.2094    1.3345    0.0322 H   0  0  0  0  0  0  0  0  0  0  0  0
   -3.8733    3.3499    0.9970 H   0  0  0  0  0  0  0  0  0  0  0  0
   -2.8935   -0.2946    4.2429 H   0  0  0  0  0  0  0  0  0  0  0  0
   -1.5201    0.3997   -0.8966 H   0  0  0  0  0  0  0  0  0  0  0  0
   -1.6408    2.3856    2.5077 H   0  0  0  0  0  0  0  0  0  0  0  0
   -3.5978    3.5854    3.3745 H   0  0  0  0  0  0  0  0  0  0  0  0
   -4.4499    2.0301    3.7157 H   0  0  0  0  0  0  0  0  0  0  0  0
   -5.2099    0.1779   -0.2154 H   0  0  0  0  0  0  0  0  0  0  0  0
   -4.7354   -0.8238    1.2068 H   0  0  0  0  0  0  0  0  0  0  0  0
   -6.3073    3.0018    2.2351 H   0  0  0  0  0  0  0  0  0  0  0  0
   -6.1240    2.6994    0.4631 H   0  0  0  0  0  0  0  0  0  0  0  0
   -5.9906    0.5827    2.7207 H   0  0  0  0  0  0  0  0  0  0  0  0
   -7.0687    0.5815    1.2736 H   0  0  0  0  0  0  0  0  0  0  0  0
   -2.8016   -1.0222   -0.0360 H   0  0  0  0  0  0  0  0  0  0  0  0
   -2.3346   -3.1333    0.9798 H   0  0  0  0  0  0  0  0  0  0  0  0
   -1.3310   -3.0033   -0.4867 H   0  0  0  0  0  0  0  0  0  0  0  0
   -0.6001   -2.8312    1.1396 H   0  0  0  0  0  0  0  0  0  0  0  0
    0.6477    0.2614   -1.4785 H   0  0  0  0  0  0  0  0  0  0  0  0
    0.9139   -1.3849    0.9050 H   0  0  0  0  0  0  0  0  0  0  0  0
    1.5105   -2.3394   -0.4822 H   0  0  0  0  0  0  0  0  0  0  0  0
    2.9071   -0.1628   -1.0543 H   0  0  0  0  0  0  0  0  0  0  0  0
    2.3395    0.4901    0.5076 H   0  0  0  0  0  0  0  0  0  0  0  0
    2.1953   -2.5946   -3.9906 H   0  0  0  0  0  0  0  0  0  0  0  0
    2.4716   -1.8143   -2.4215 H   0  0  0  0  0  0  0  0  0  0  0  0
    5.1221    0.2966   -0.1745 H   0  0  0  0  0  0  0  0  0  0  0  0
    2.6716   -2.6293    1.6734 H   0  0  0  0  0  0  0  0  0  0  0  0
    7.0687   -0.6685    0.8947 H   0  0  0  0  0  0  0  0  0  0  0  0
    4.6187   -3.5854    2.7321 H   0  0  0  0  0  0  0  0  0  0  0  0
    6.8315   -2.6193    2.3548 H   0  0  0  0  0  0  0  0  0  0  0  0
    2.8426   -0.2552   -4.4309 H   0  0  0  0  0  0  0  0  0  0  0  0
    1.5317    0.3892   -3.4082 H   0  0  0  0  0  0  0  0  0  0  0  0
    1.1287   -0.4899   -4.9184 H   0  0  0  0  0  0  0  0  0  0  0  0
  1 14  2  0      
  2 16  2  0      
  3 16  1  0      
  3 33  1  0      
  4 20  1  0      
  4 24  1  0      
  5 20  2  0      
  6  8  1  0      
  6 10  1  0      
  6 14  1  0      
  7 17  1  0      
  7 19  1  0      
  7 34  1  0      
  8  9  1  0      
  8 12  1  0      
  8 31  1  0      
  9 11  1  0      
 13  9  1  0      
  9 32  1  0      
 11 10  1  0      
 10 16  1  0      
 10 35  1  0      
 11 36  1  0      
 11 37  1  0      
 12 15  1  0      
 12 38  1  0      
 12 39  1  0      
 15 13  1  0      
 13 40  1  0      
 13 41  1  0      
 14 17  1  0      
 15 42  1  0      
 15 43  1  0      
 17 18  1  0      
 17 44  1  0      
 18 45  1  0      
 18 46  1  0      
 18 47  1  0      
 19 20  1  0      
 19 21  1  0      
 19 48  1  0      
 21 22  1  0      
 21 49  1  0      
 21 50  1  0      
 22 23  1  0      
 22 51  1  0      
 22 52  1  0      
 23 25  1  0      
 23 26  2  0      
 24 30  1  0      
 24 53  1  0      
 24 54  1  0      
 25 27  2  0      
 25 55  1  0      
 28 26  1  0      
 26 56  1  0      
 27 29  1  0      
 27 57  1  0      
 29 28  2  0      
 28 58  1  0      
 29 59  1  0      
 30 60  1  0      
 30 61  1  0      
 30 62  1  0      
M  END
