
  Chem3D Core 15.003181615003D

 52 54  0  0  0  0  0  0  0  0999 V2000
   -4.5277   -2.1968   -2.6360 C   0  0  0  0  0  0  0  0  0  0  0  0
   -4.5811   -2.1769   -4.1665 C   0  0  0  0  0  0  0  0  0  0  0  0
   -4.2087   -4.4669   -4.2971 C   0  0  0  0  0  0  0  0  0  0  0  0
   -4.1669   -4.5798   -2.7767 C   0  0  0  0  0  0  0  0  0  0  0  0
   -0.5632   -0.5654    0.0071 C   0  0  0  0  0  0  0  0  0  0  0  0
   -0.9356   -1.6523   -0.7025 C   0  0  0  0  0  0  0  0  0  0  0  0
   -2.1948   -2.1197   -0.7811 C   0  0  0  0  0  0  0  0  0  0  0  0
   -3.1205   -1.4824   -0.0445 C   0  0  0  0  0  0  0  0  0  0  0  0
   -2.7592   -0.4366    0.7131 C   0  0  0  0  0  0  0  0  0  0  0  0
   -1.4976    0.0398    0.7758 C   0  0  0  0  0  0  0  0  0  0  0  0
   -2.4853   -3.2060   -1.5595 C   0  0  0  0  0  0  0  0  0  0  0  0
   -3.6973   -3.3213   -2.2054 N   0  0  0  0  0  0  0  0  0  0  0  0
   -1.6211   -4.0184   -1.8074 O   0  0  0  0  0  0  0  0  0  0  0  0
   -5.0462   -3.4028   -4.6727 O   0  0  0  0  0  0  0  0  0  0  0  0
   -1.3929    1.0286    1.5767 N   0  0  0  0  0  0  0  0  0  0  0  0
   -0.5312    1.8383    2.0560 C   0  0  0  0  0  0  0  0  0  0  0  0
    0.7168    1.8765    1.8273 N   0  0  0  0  0  0  0  0  0  0  0  0
    1.5011    2.7120    2.3734 C   0  0  0  0  0  0  0  0  0  0  0  0
    1.0079    3.6282    3.2300 C   0  0  0  0  0  0  0  0  0  0  0  0
   -0.3155    3.5459    3.4298 C   0  0  0  0  0  0  0  0  0  0  0  0
   -1.0389    2.6813    2.8629 N   0  0  0  0  0  0  0  0  0  0  0  0
    2.7562    2.7532    2.1735 N   0  0  0  0  0  0  0  0  0  0  0  0
    1.8604    4.6669    3.9302 C   0  0  0  0  0  0  0  0  0  0  0  0
    1.1701    5.4485    4.7447 F   0  0  0  0  0  0  0  0  0  0  0  0
    2.8129    4.0861    4.6443 F   0  0  0  0  0  0  0  0  0  0  0  0
    2.4604    5.4453    3.0423 F   0  0  0  0  0  0  0  0  0  0  0  0
    3.5026    1.8274    1.2972 C   0  0  0  0  0  0  0  0  0  0  0  0
    0.7645   -0.2272   -0.0082 O   0  0  0  0  0  0  0  0  0  0  0  0
    1.1177    0.5772   -1.1132 C   0  0  0  0  0  0  0  0  0  0  0  0
   -4.3718   -1.9096    0.0293 F   0  0  0  0  0  0  0  0  0  0  0  0
    4.9699    1.7696    1.7383 C   0  0  0  0  0  0  0  0  0  0  0  0
   -4.1184   -1.2090   -2.3245 H   0  0  0  0  0  0  0  0  0  0  0  0
   -5.5578   -2.3002   -2.2211 H   0  0  0  0  0  0  0  0  0  0  0  0
   -3.5790   -1.9567   -4.6025 H   0  0  0  0  0  0  0  0  0  0  0  0
   -5.2821   -1.3840   -4.5182 H   0  0  0  0  0  0  0  0  0  0  0  0
   -4.6283   -5.3978   -4.7447 H   0  0  0  0  0  0  0  0  0  0  0  0
   -3.1909   -4.3121   -4.7228 H   0  0  0  0  0  0  0  0  0  0  0  0
   -5.1897   -4.7936   -2.3854 H   0  0  0  0  0  0  0  0  0  0  0  0
   -3.5427   -5.4485   -2.4680 H   0  0  0  0  0  0  0  0  0  0  0  0
   -0.1349   -2.1524   -1.2751 H   0  0  0  0  0  0  0  0  0  0  0  0
   -3.5691    0.0102    1.3183 H   0  0  0  0  0  0  0  0  0  0  0  0
   -2.3323    1.2604    1.9962 H   0  0  0  0  0  0  0  0  0  0  0  0
   -0.8393    4.2352    4.1113 H   0  0  0  0  0  0  0  0  0  0  0  0
    3.3088    3.4893    2.6796 H   0  0  0  0  0  0  0  0  0  0  0  0
    3.0715    0.7998    1.3373 H   0  0  0  0  0  0  0  0  0  0  0  0
    3.4467    2.2074    0.2504 H   0  0  0  0  0  0  0  0  0  0  0  0
    0.8457    0.0719   -2.0663 H   0  0  0  0  0  0  0  0  0  0  0  0
    0.6068    1.5635   -1.0437 H   0  0  0  0  0  0  0  0  0  0  0  0
    2.2187    0.7273   -1.1015 H   0  0  0  0  0  0  0  0  0  0  0  0
    5.5578    1.0841    1.0854 H   0  0  0  0  0  0  0  0  0  0  0  0
    5.4431    2.7772    1.6887 H   0  0  0  0  0  0  0  0  0  0  0  0
    5.0562    1.4016    2.7865 H   0  0  0  0  0  0  0  0  0  0  0  0
  1  2  1  0      
 12  1  1  0      
  1 32  1  0      
  1 33  1  0      
  2 14  1  0      
  2 34  1  0      
  2 35  1  0      
  3  4  1  0      
 14  3  1  0      
  3 36  1  0      
  3 37  1  0      
 12  4  1  0      
  4 38  1  0      
  4 39  1  0      
  5  6  1  0      
  5 10  2  0      
  5 28  1  0      
  6  7  2  0      
  6 40  1  0      
  7  8  1  0      
  7 11  1  0      
  8  9  2  0      
  8 30  1  0      
  9 10  1  0      
  9 41  1  0      
 10 15  1  0      
 11 12  1  0      
 11 13  2  0      
 15 16  1  0      
 15 42  1  0      
 17 16  2  0      
 16 21  1  0      
 18 17  1  0      
 19 18  2  0      
 18 22  1  0      
 20 19  1  0      
 19 23  1  0      
 20 21  2  0      
 20 43  1  0      
 22 27  1  0      
 22 44  1  0      
 23 24  1  0      
 23 25  1  0      
 23 26  1  0      
 27 31  1  0      
 27 45  1  0      
 27 46  1  0      
 28 29  1  0      
 29 47  1  0      
 29 48  1  0      
 29 49  1  0      
 31 50  1  0      
 31 51  1  0      
 31 52  1  0      
M  END
