
  Chem3D Core 14.004271610483D

 48 50  0  0  0  0  0  0  0  0999 V2000
    4.6589   -5.1054    2.3579 Cl  0  0  0  0  0  0  0  0  0  0  0  0
    2.6737   -4.4415    0.1484 F   0  0  0  0  0  0  0  0  0  0  0  0
    1.3444   -2.8302    0.5570 F   0  0  0  0  0  0  0  0  0  0  0  0
    1.7306   -4.2884    2.0619 F   0  0  0  0  0  0  0  0  0  0  0  0
    1.7209    3.8133    1.4224 F   0  0  0  0  0  0  0  0  0  0  0  0
   -1.5593    3.5909   -1.8626 O   0  0  0  0  0  0  0  0  0  0  0  0
    4.0933    2.7621    1.5924 O   0  0  0  0  0  0  0  0  0  0  0  0
   -6.3642    0.5115   -0.5263 O   0  0  0  0  0  0  0  0  0  0  0  0
    4.5957    0.6507    1.8873 N   0  0  0  0  0  0  0  0  0  0  0  0
    2.8090    1.2901    0.4773 N   0  0  0  0  0  0  0  0  0  0  0  0
   -5.0649    2.7505    0.0036 N   0  0  0  0  0  0  0  0  0  0  0  0
   -4.7929   -0.0936   -1.9945 N   0  0  0  0  0  0  0  0  0  0  0  0
    3.4829   -2.7968    1.6087 C   0  0  0  0  0  0  0  0  0  0  0  0
    2.2915   -3.5889    1.0871 C   0  0  0  0  0  0  0  0  0  0  0  0
    4.5546   -3.3874    2.1783 C   0  0  0  0  0  0  0  0  0  0  0  0
    4.5142   -0.6943    1.9494 C   0  0  0  0  0  0  0  0  0  0  0  0
    3.4920   -1.4515    1.5141 C   0  0  0  0  0  0  0  0  0  0  0  0
    1.7389    1.9553   -0.0097 C   0  0  0  0  0  0  0  0  0  0  0  0
   -0.4644    3.0440   -1.2472 C   0  0  0  0  0  0  0  0  0  0  0  0
    5.5806   -2.6511    2.6342 C   0  0  0  0  0  0  0  0  0  0  0  0
    1.2351    3.1404    0.3916 C   0  0  0  0  0  0  0  0  0  0  0  0
    5.5584   -1.3157    2.5230 C   0  0  0  0  0  0  0  0  0  0  0  0
    3.8171    1.6228    1.3346 C   0  0  0  0  0  0  0  0  0  0  0  0
   -2.7407    3.3141   -1.2281 C   0  0  0  0  0  0  0  0  0  0  0  0
    0.1583    3.6570   -0.2244 C   0  0  0  0  0  0  0  0  0  0  0  0
    1.1114    1.3252   -1.0204 C   0  0  0  0  0  0  0  0  0  0  0  0
    0.0413    1.8578   -1.6278 C   0  0  0  0  0  0  0  0  0  0  0  0
   -4.6057    1.9196   -0.8404 C   0  0  0  0  0  0  0  0  0  0  0  0
   -3.4414    2.1888   -1.4680 C   0  0  0  0  0  0  0  0  0  0  0  0
   -3.2815    4.1563   -0.3318 C   0  0  0  0  0  0  0  0  0  0  0  0
   -5.3190    0.7757   -1.0785 C   0  0  0  0  0  0  0  0  0  0  0  0
   -4.4402    3.8211    0.2503 C   0  0  0  0  0  0  0  0  0  0  0  0
   -5.4490   -1.3533   -2.3449 C   0  0  0  0  0  0  0  0  0  0  0  0
    5.4287    0.9902    2.3452 H   0  0  0  0  0  0  0  0  0  0  0  0
    2.8780    0.3786    0.0485 H   0  0  0  0  0  0  0  0  0  0  0  0
   -3.9149    0.1353   -2.4547 H   0  0  0  0  0  0  0  0  0  0  0  0
    2.6090   -0.9703    1.0774 H   0  0  0  0  0  0  0  0  0  0  0  0
    6.4559   -3.1302    3.1054 H   0  0  0  0  0  0  0  0  0  0  0  0
    6.4153   -0.7345    2.9053 H   0  0  0  0  0  0  0  0  0  0  0  0
   -0.2390    4.6229    0.1313 H   0  0  0  0  0  0  0  0  0  0  0  0
    1.4800    0.3484   -1.3807 H   0  0  0  0  0  0  0  0  0  0  0  0
   -0.4336    1.3096   -2.4590 H   0  0  0  0  0  0  0  0  0  0  0  0
   -2.9986    1.5068   -2.2089 H   0  0  0  0  0  0  0  0  0  0  0  0
   -2.7827    5.1054   -0.0779 H   0  0  0  0  0  0  0  0  0  0  0  0
   -4.9007    4.4965    0.9912 H   0  0  0  0  0  0  0  0  0  0  0  0
   -6.4559   -1.1644   -2.7812 H   0  0  0  0  0  0  0  0  0  0  0  0
   -4.8328   -1.8834   -3.1054 H   0  0  0  0  0  0  0  0  0  0  0  0
   -5.5415   -2.0107   -1.4509 H   0  0  0  0  0  0  0  0  0  0  0  0
  1 15  1  0      
  2 14  1  0      
  3 14  1  0      
  4 14  1  0      
  5 21  1  0      
  6 19  1  0      
  6 24  1  0      
  7 23  2  0      
  8 31  2  0      
  9 16  1  0      
  9 23  1  0      
  9 34  1  0      
 10 18  1  0      
 10 23  1  0      
 10 35  1  0      
 28 11  2  0      
 11 32  1  0      
 12 31  1  0      
 12 33  1  0      
 12 36  1  0      
 13 14  1  0      
 13 15  1  0      
 13 17  2  0      
 15 20  2  0      
 16 17  1  0      
 22 16  2  0      
 17 37  1  0      
 18 21  1  0      
 18 26  2  0      
 25 19  1  0      
 19 27  2  0      
 20 22  1  0      
 20 38  1  0      
 21 25  2  0      
 22 39  1  0      
 24 29  2  0      
 30 24  1  0      
 25 40  1  0      
 27 26  1  0      
 26 41  1  0      
 27 42  1  0      
 29 28  1  0      
 28 31  1  0      
 29 43  1  0      
 30 32  2  0      
 30 44  1  0      
 32 45  1  0      
 33 46  1  0      
 33 47  1  0      
 33 48  1  0      
M  END
