
  Chem3D Core 15.011171510013D

  0  0  0     0  0              0 V3000
M  V30 BEGIN CTAB
M  V30 COUNTS 94 97 0 0 0
M  V30 BEGIN ATOM
M  V30 1 S 4.013766 4.385723 2.788808 0
M  V30 2 O -1.261399 -4.758121 -1.707453 0
M  V30 3 O 0.869763 -2.898143 0.542936 0
M  V30 4 O 2.204307 -1.289020 -1.132776 0
M  V30 5 O 4.074436 3.916189 1.414727 0
M  V30 6 O 5.158032 4.305833 3.685894 0
M  V30 7 O 4.453812 0.815543 2.094990 0
M  V30 8 N 0.080710 -0.704574 -0.623563 0
M  V30 9 N 3.138359 0.846859 0.310373 0
M  V30 10 N 3.473652 3.761984 -1.805576 0
M  V30 11 N 2.208740 5.241419 -1.014477 0
M  V30 12 C 0.112824 -5.639621 0.028339 0
M  V30 13 C 0.761201 -6.883428 -0.531680 0
M  V30 14 C 1.538075 -5.981377 0.393462 0
M  V30 15 C -0.108766 -4.476276 -0.935034 0
M  V30 16 C -0.286968 -3.136279 -0.230338 0
M  V30 17 C -0.514084 -1.936846 -1.165135 0
M  V30 18 C -2.259038 -0.346982 -2.243710 0
M  V30 19 C -1.991729 -1.689895 -1.529612 0
M  V30 20 C -3.768152 -0.159516 -2.490880 0
M  V30 21 C -1.490802 -0.210872 -3.570506 0
M  V30 22 C -4.062462 1.187228 -3.166905 0
M  V30 23 C -1.785226 1.133619 -4.252143 0
M  V30 24 C -3.290687 1.314218 -4.487088 0
M  V30 25 C 1.418225 -0.459271 -0.745449 0
M  V30 26 C 1.860607 0.957564 -0.398809 0
M  V30 27 C 2.017876 1.721166 -1.726586 0
M  V30 28 C 2.384503 2.005737 2.404333 0
M  V30 29 C 3.121409 2.898807 3.451758 0
M  V30 30 C 2.892058 5.741534 3.094296 0
M  V30 31 C 3.409465 1.172460 1.611131 0
M  V30 32 C 1.369337 1.096614 3.140139 0
M  V30 33 C 2.388259 3.161046 -1.538043 0
M  V30 34 C 1.476128 5.431773 2.585592 0
M  V30 35 C 2.880653 6.074680 4.596588 0
M  V30 36 C 3.481813 6.928967 2.306312 0
M  V30 37 C 0.041721 0.814387 2.461340 0
M  V30 38 C 1.602861 4.129846 -1.040321 0
M  V30 39 C -0.476313 -0.427511 2.460639 0
M  V30 40 C -0.691305 1.799768 1.909715 0
M  V30 41 C 3.353323 4.981834 -1.485352 0
M  V30 42 C -1.683480 -0.676484 1.930562 0
M  V30 43 C -1.882608 1.553775 1.344287 0
M  V30 44 C -2.387590 0.312745 1.362358 0
M  V30 45 H -1.174277 -5.623987 -2.112174 0
M  V30 46 H 1.625179 -2.742927 -0.033760 0
M  V30 47 H -0.484861 -0.082706 -0.038593 0
M  V30 48 H 3.882443 0.337767 -0.166778 0
M  V30 49 H 4.329965 3.321630 -2.212573 0
M  V30 50 H -0.670002 -5.753797 0.786961 0
M  V30 51 H 0.425275 -7.841841 -0.138586 0
M  V30 52 H 1.036929 -6.888932 -1.584705 0
M  V30 53 H 2.339368 -5.384311 -0.038287 0
M  V30 54 H 1.721084 -6.331666 1.408165 0
M  V30 55 H 0.738370 -4.401987 -1.655915 0
M  V30 56 H -1.126382 -3.215480 0.497134 0
M  V30 57 H 0.006667 -2.163187 -2.128049 0
M  V30 58 H -1.931161 0.483884 -1.570491 0
M  V30 59 H -2.372295 -2.516887 -2.171541 0
M  V30 60 H -2.598753 -1.718033 -0.596124 0
M  V30 61 H -4.146220 -0.987410 -3.135955 0
M  V30 62 H -4.324742 -0.215254 -1.525053 0
M  V30 63 H -0.391462 -0.283217 -3.398995 0
M  V30 64 H -1.775045 -1.047456 -4.251082 0
M  V30 65 H -5.158032 1.286497 -3.356718 0
M  V30 66 H -3.771335 2.019253 -2.482236 0
M  V30 67 H -1.239730 1.194683 -5.224238 0
M  V30 68 H -1.405941 1.965597 -3.611666 0
M  V30 69 H -3.650929 0.540038 -5.205707 0
M  V30 70 H -3.487669 2.310839 -4.949644 0
M  V30 71 H 1.070986 1.443014 0.203920 0
M  V30 72 H 2.793377 1.233839 -2.362684 0
M  V30 73 H 1.058637 1.689741 -2.296600 0
M  V30 74 H 1.863962 2.711397 1.722162 0
M  V30 75 H 2.409189 3.275272 4.217195 0
M  V30 76 H 3.827549 2.271963 4.042431 0
M  V30 77 H 1.885874 0.151011 3.424620 0
M  V30 78 H 1.065438 1.559638 4.108752 0
M  V30 79 H 0.833534 6.338214 2.658246 0
M  V30 80 H 1.466597 5.121591 1.519362 0
M  V30 81 H 0.961120 4.646401 3.179797 0
M  V30 82 H 2.227536 6.956333 4.788105 0
M  V30 83 H 3.891084 6.339229 4.982321 0
M  V30 84 H 2.481703 5.248104 5.224238 0
M  V30 85 H 3.505166 6.740069 1.208656 0
M  V30 86 H 2.861759 7.841841 2.457058 0
M  V30 87 H 4.514510 7.189226 2.633476 0
M  V30 88 H 0.569236 4.008020 -0.690636 0
M  V30 89 H 0.077403 -1.257365 2.929759 0
M  V30 90 H -0.327671 2.839463 1.922775 0
M  V30 91 H 4.171662 5.697817 -1.619257 0
M  V30 92 H -2.103592 -1.694730 1.968080 0
M  V30 93 H -2.462217 2.376473 0.892993 0
M  V30 94 H -3.380444 0.112706 0.927053 0
M  V30 END ATOM
M  V30 BEGIN BOND
M  V30 1 2 1 5
M  V30 2 2 1 6
M  V30 3 1 1 29
M  V30 4 1 1 30
M  V30 5 1 15 2
M  V30 6 1 2 45
M  V30 7 1 16 3
M  V30 8 1 3 46
M  V30 9 2 4 25
M  V30 10 2 7 31
M  V30 11 1 17 8
M  V30 12 1 8 25
M  V30 13 1 8 47
M  V30 14 1 26 9
M  V30 15 1 9 31
M  V30 16 1 9 48
M  V30 17 1 33 10
M  V30 18 1 10 41
M  V30 19 1 10 49
M  V30 20 1 38 11
M  V30 21 2 41 11
M  V30 22 1 12 13
M  V30 23 1 12 14
M  V30 24 1 12 15
M  V30 25 1 12 50
M  V30 26 1 13 14
M  V30 27 1 13 51
M  V30 28 1 13 52
M  V30 29 1 14 53
M  V30 30 1 14 54
M  V30 31 1 15 16
M  V30 32 1 15 55
M  V30 33 1 16 17
M  V30 34 1 16 56
M  V30 35 1 17 19
M  V30 36 1 17 57
M  V30 37 1 18 19
M  V30 38 1 18 20
M  V30 39 1 18 21
M  V30 40 1 18 58
M  V30 41 1 19 59
M  V30 42 1 19 60
M  V30 43 1 20 22
M  V30 44 1 20 61
M  V30 45 1 20 62
M  V30 46 1 23 21
M  V30 47 1 21 63
M  V30 48 1 21 64
M  V30 49 1 22 24
M  V30 50 1 22 65
M  V30 51 1 22 66
M  V30 52 1 24 23
M  V30 53 1 23 67
M  V30 54 1 23 68
M  V30 55 1 24 69
M  V30 56 1 24 70
M  V30 57 1 25 26
M  V30 58 1 26 27
M  V30 59 1 26 71
M  V30 60 1 27 33
M  V30 61 1 27 72
M  V30 62 1 27 73
M  V30 63 1 28 29
M  V30 64 1 28 31
M  V30 65 1 28 32
M  V30 66 1 28 74
M  V30 67 1 29 75
M  V30 68 1 29 76
M  V30 69 1 30 34
M  V30 70 1 30 35
M  V30 71 1 30 36
M  V30 72 1 32 37
M  V30 73 1 32 77
M  V30 74 1 32 78
M  V30 75 2 38 33
M  V30 76 1 34 79
M  V30 77 1 34 80
M  V30 78 1 34 81
M  V30 79 1 35 82
M  V30 80 1 35 83
M  V30 81 1 35 84
M  V30 82 1 36 85
M  V30 83 1 36 86
M  V30 84 1 36 87
M  V30 85 1 37 39
M  V30 86 2 37 40
M  V30 87 1 38 88
M  V30 88 2 39 42
M  V30 89 1 39 89
M  V30 90 1 43 40
M  V30 91 1 40 90
M  V30 92 1 41 91
M  V30 93 1 42 44
M  V30 94 1 42 92
M  V30 95 2 44 43
M  V30 96 1 43 93
M  V30 97 1 44 94
M  V30 END BOND
M  V30 END CTAB
M  END
