
  Chem3D Core 15.003281610483D

 20 21  0  0  0  0  0  0  0  0999 V2000
    3.9741    0.8302   -0.9191 N   0  0  0  0  0  0  0  0  0  0  0  0
    2.7873    0.5510   -0.5840 C   0  0  0  0  0  0  0  0  0  0  0  0
    2.3906   -0.5878   -0.1978 N   0  0  0  0  0  0  0  0  0  0  0  0
    1.1570   -0.5112    0.0541 C   0  0  0  0  0  0  0  0  0  0  0  0
    0.3387   -1.4768    0.4872 C   0  0  0  0  0  0  0  0  0  0  0  0
   -0.9527   -1.1702    0.6913 C   0  0  0  0  0  0  0  0  0  0  0  0
   -1.4661    0.0617    0.4838 C   0  0  0  0  0  0  0  0  0  0  0  0
   -2.8053    0.2468    0.7272 O   0  0  0  0  0  0  0  0  0  0  0  0
   -3.4171    1.5216    0.4800 C   0  0  0  0  0  0  0  0  0  0  0  0
   -4.7169    1.4727    0.7563 F   0  0  0  0  0  0  0  0  0  0  0  0
   -2.9172    2.4956    1.2309 F   0  0  0  0  0  0  0  0  0  0  0  0
   -3.3236    1.9081   -0.7866 F   0  0  0  0  0  0  0  0  0  0  0  0
   -0.6113    1.0113    0.0442 C   0  0  0  0  0  0  0  0  0  0  0  0
    0.6815    0.7206   -0.1643 C   0  0  0  0  0  0  0  0  0  0  0  0
    1.7601    1.5965   -0.6322 S   0  0  0  0  0  0  0  0  0  0  0  0
    4.2401    1.7967   -1.2309 H   0  0  0  0  0  0  0  0  0  0  0  0
    4.7169    0.0895   -0.8889 H   0  0  0  0  0  0  0  0  0  0  0  0
    0.7169   -2.4956    0.6699 H   0  0  0  0  0  0  0  0  0  0  0  0
   -1.6267   -1.9687    1.0474 H   0  0  0  0  0  0  0  0  0  0  0  0
   -0.9564    2.0384   -0.1501 H   0  0  0  0  0  0  0  0  0  0  0  0
  1  2  1  0      
  1 16  1  0      
  1 17  1  0      
  2  3  2  0      
  2 15  1  0      
  3  4  1  0      
  4  5  2  0      
  4 14  1  0      
  5  6  1  0      
  5 18  1  0      
  6  7  2  0      
  6 19  1  0      
  7  8  1  0      
  7 13  1  0      
  8  9  1  0      
  9 10  1  0      
  9 11  1  0      
  9 12  1  0      
 13 14  2  0      
 13 20  1  0      
 14 15  1  0      
M  END
