
  Chem3D Core 15.010021516393D

 57 61  0  0  0  0  0  0  0  0999 V2000
   -4.5333    7.2791   -1.6097 F   0  0  0  0  0  0  0  0  0  0  0  0
   -3.5670    4.0911   -4.7873 O   0  0  0  0  0  0  0  0  0  0  0  0
    1.3064   -2.0248    2.3172 O   0  0  0  0  0  0  0  0  0  0  0  0
    1.9124   -4.1976    2.3889 N   0  0  0  0  0  0  0  0  0  0  0  0
   -2.9741    2.9163   -4.6695 N   0  0  0  0  0  0  0  0  0  0  0  0
    0.8304   -5.6882    1.0320 N   0  0  0  0  0  0  0  0  0  0  0  0
   -0.7167   -0.3940   -1.0946 N   0  0  0  0  0  0  0  0  0  0  0  0
   -3.0344    3.7584   -2.7591 C   0  0  0  0  0  0  0  0  0  0  0  0
   -2.6445    2.6903   -3.4677 C   0  0  0  0  0  0  0  0  0  0  0  0
   -3.5961    4.5756   -3.6587 C   0  0  0  0  0  0  0  0  0  0  0  0
   -1.9513    1.4197   -3.0589 C   0  0  0  0  0  0  0  0  0  0  0  0
    0.1903   -3.4814    1.0094 C   0  0  0  0  0  0  0  0  0  0  0  0
    1.1434   -3.1579    1.9281 C   0  0  0  0  0  0  0  0  0  0  0  0
    1.7183   -5.4391    1.8945 C   0  0  0  0  0  0  0  0  0  0  0  0
    0.0866   -4.7616    0.5995 C   0  0  0  0  0  0  0  0  0  0  0  0
   -2.9640    4.0989   -1.4669 C   0  0  0  0  0  0  0  0  0  0  0  0
   -4.1047    5.7606   -3.2967 C   0  0  0  0  0  0  0  0  0  0  0  0
   -4.0396    6.1144   -2.0008 C   0  0  0  0  0  0  0  0  0  0  0  0
   -0.5629    1.6789   -2.4616 C   0  0  0  0  0  0  0  0  0  0  0  0
   -2.7796    0.5967   -2.0652 C   0  0  0  0  0  0  0  0  0  0  0  0
   -0.7084   -2.3858    0.4571 C   0  0  0  0  0  0  0  0  0  0  0  0
    2.9635   -3.9011    3.3688 C   0  0  0  0  0  0  0  0  0  0  0  0
   -3.4744    5.2879   -1.1012 C   0  0  0  0  0  0  0  0  0  0  0  0
    2.5512   -6.6158    2.3357 C   0  0  0  0  0  0  0  0  0  0  0  0
    0.0982    0.3553   -2.0464 C   0  0  0  0  0  0  0  0  0  0  0  0
   -2.0309   -0.6830   -1.6566 C   0  0  0  0  0  0  0  0  0  0  0  0
   -0.0102   -1.6019   -0.6708 C   0  0  0  0  0  0  0  0  0  0  0  0
    3.5434   -5.1438    4.0551 C   0  0  0  0  0  0  0  0  0  0  0  0
    3.8666   -6.1976    2.9961 C   0  0  0  0  0  0  0  0  0  0  0  0
   -0.9164   -5.2246   -0.4347 C   0  0  0  0  0  0  0  0  0  0  0  0
   -1.8117    0.7958   -3.9776 H   0  0  0  0  0  0  0  0  0  0  0  0
   -2.5059    3.4370   -0.7172 H   0  0  0  0  0  0  0  0  0  0  0  0
   -4.5643    6.4267   -4.0439 H   0  0  0  0  0  0  0  0  0  0  0  0
    0.0771    2.2113   -3.2053 H   0  0  0  0  0  0  0  0  0  0  0  0
   -0.6409    2.3362   -1.5649 H   0  0  0  0  0  0  0  0  0  0  0  0
   -2.9890    1.1954   -1.1485 H   0  0  0  0  0  0  0  0  0  0  0  0
   -3.7657    0.3358   -2.5188 H   0  0  0  0  0  0  0  0  0  0  0  0
   -1.6580   -2.8328    0.0917 H   0  0  0  0  0  0  0  0  0  0  0  0
   -1.0209   -1.6946    1.2737 H   0  0  0  0  0  0  0  0  0  0  0  0
    2.5720   -3.2343    4.1745 H   0  0  0  0  0  0  0  0  0  0  0  0
    3.7853   -3.3553    2.8456 H   0  0  0  0  0  0  0  0  0  0  0  0
   -3.4285    5.5920   -0.0419 H   0  0  0  0  0  0  0  0  0  0  0  0
    2.7759   -7.2791    1.4666 H   0  0  0  0  0  0  0  0  0  0  0  0
    1.9412   -7.2104    3.0571 H   0  0  0  0  0  0  0  0  0  0  0  0
    1.0909    0.5994   -1.5958 H   0  0  0  0  0  0  0  0  0  0  0  0
    0.2974   -0.2565   -2.9587 H   0  0  0  0  0  0  0  0  0  0  0  0
   -2.6746   -1.2038   -0.9100 H   0  0  0  0  0  0  0  0  0  0  0  0
   -1.9383   -1.3582   -2.5403 H   0  0  0  0  0  0  0  0  0  0  0  0
    0.9983   -1.3094   -0.2904 H   0  0  0  0  0  0  0  0  0  0  0  0
    0.1633   -2.2825   -1.5379 H   0  0  0  0  0  0  0  0  0  0  0  0
    2.8099   -5.5582    4.7873 H   0  0  0  0  0  0  0  0  0  0  0  0
    4.4625   -4.8728    4.6277 H   0  0  0  0  0  0  0  0  0  0  0  0
    4.5643   -5.7707    2.2370 H   0  0  0  0  0  0  0  0  0  0  0  0
    4.3688   -7.0818    3.4557 H   0  0  0  0  0  0  0  0  0  0  0  0
   -0.8622   -4.5987   -1.3538 H   0  0  0  0  0  0  0  0  0  0  0  0
   -0.7440   -6.2750   -0.7620 H   0  0  0  0  0  0  0  0  0  0  0  0
   -1.9497   -5.1795   -0.0218 H   0  0  0  0  0  0  0  0  0  0  0  0
  1 18  1  0      
  5  2  1  0      
  2 10  1  0      
  3 13  2  0      
 13  4  1  0      
  4 14  1  0      
  4 22  1  0      
  9  5  2  0      
 14  6  2  0      
 15  6  1  0      
  7 25  1  0      
  7 26  1  0      
  7 27  1  0      
  9  8  1  0      
 10  8  2  0      
 16  8  1  0      
  9 11  1  0      
 10 17  1  0      
 19 11  1  0      
 11 20  1  0      
 11 31  1  0      
 12 13  1  0      
 15 12  2  0      
 12 21  1  0      
 24 14  1  0      
 15 30  1  0      
 23 16  2  0      
 16 32  1  0      
 17 18  2  0      
 17 33  1  0      
 18 23  1  0      
 25 19  1  0      
 19 34  1  0      
 19 35  1  0      
 20 26  1  0      
 20 36  1  0      
 20 37  1  0      
 21 27  1  0      
 21 38  1  0      
 21 39  1  0      
 22 28  1  0      
 22 40  1  0      
 22 41  1  0      
 23 42  1  0      
 29 24  1  0      
 24 43  1  0      
 24 44  1  0      
 25 45  1  0      
 25 46  1  0      
 26 47  1  0      
 26 48  1  0      
 27 49  1  0      
 27 50  1  0      
 28 29  1  0      
 28 51  1  0      
 28 52  1  0      
 29 53  1  0      
 29 54  1  0      
 30 55  1  0      
 30 56  1  0      
 30 57  1  0      
M  END
