
  Chem3D Core 15.008171513153D

 37 39  0  0  0  0  0  0  0  0999 V2000
    3.1138    3.1203   -2.1300 O   0  0  0  0  0  0  0  0  0  0  0  0
    2.5119    2.3905   -1.3889 C   0  0  0  0  0  0  0  0  0  0  0  0
    3.1125    1.9914   -0.2310 N   0  0  0  0  0  0  0  0  0  0  0  0
    2.6856    1.1380    0.7189 C   0  0  0  0  0  0  0  0  0  0  0  0
    1.5524    0.5792    0.7456 N   0  0  0  0  0  0  0  0  0  0  0  0
    1.4672   -0.2202    1.7219 C   0  0  0  0  0  0  0  0  0  0  0  0
    0.3701   -0.9565    1.9920 C   0  0  0  0  0  0  0  0  0  0  0  0
    0.2977   -1.8263    3.0182 C   0  0  0  0  0  0  0  0  0  0  0  0
   -0.8305   -2.5267    3.2206 C   0  0  0  0  0  0  0  0  0  0  0  0
   -1.8657   -2.4268    2.5011 N   0  0  0  0  0  0  0  0  0  0  0  0
   -1.8189   -1.6109    1.5360 C   0  0  0  0  0  0  0  0  0  0  0  0
   -0.7440   -0.8629    1.2384 C   0  0  0  0  0  0  0  0  0  0  0  0
    2.6318   -0.1891    2.3938 C   0  0  0  0  0  0  0  0  0  0  0  0
    3.5915    0.7400    1.7922 S   0  0  0  0  0  0  0  0  0  0  0  0
    1.2618    1.9274   -1.6958 N   0  0  0  0  0  0  0  0  0  0  0  0
    0.6202    2.1483   -2.9915 C   0  0  0  0  0  0  0  0  0  0  0  0
   -0.7047    1.4189   -2.9963 C   0  0  0  0  0  0  0  0  0  0  0  0
   -1.7925    1.9622   -3.5692 C   0  0  0  0  0  0  0  0  0  0  0  0
   -2.9684    1.3172   -3.5455 C   0  0  0  0  0  0  0  0  0  0  0  0
   -3.0673    0.1237   -2.9418 C   0  0  0  0  0  0  0  0  0  0  0  0
   -1.9962   -0.4519   -2.3702 C   0  0  0  0  0  0  0  0  0  0  0  0
   -2.0892   -1.6485   -1.7292 O   0  0  0  0  0  0  0  0  0  0  0  0
   -0.8303    0.2151   -2.4089 C   0  0  0  0  0  0  0  0  0  0  0  0
    4.0414    2.3456   -0.0588 H   0  0  0  0  0  0  0  0  0  0  0  0
    1.1368   -1.9967    3.7101 H   0  0  0  0  0  0  0  0  0  0  0  0
   -0.8928   -3.2422    4.0586 H   0  0  0  0  0  0  0  0  0  0  0  0
   -2.7371   -1.5305    0.9301 H   0  0  0  0  0  0  0  0  0  0  0  0
   -0.8137   -0.1749    0.3819 H   0  0  0  0  0  0  0  0  0  0  0  0
    2.8883   -0.7655    3.2917 H   0  0  0  0  0  0  0  0  0  0  0  0
    0.7609    1.3595   -1.0135 H   0  0  0  0  0  0  0  0  0  0  0  0
    0.4800    3.2422   -3.1498 H   0  0  0  0  0  0  0  0  0  0  0  0
    1.2564    1.7386   -3.8099 H   0  0  0  0  0  0  0  0  0  0  0  0
   -1.7279    2.9480   -4.0586 H   0  0  0  0  0  0  0  0  0  0  0  0
   -3.8576    1.7743   -4.0113 H   0  0  0  0  0  0  0  0  0  0  0  0
   -4.0414   -0.3924   -2.9098 H   0  0  0  0  0  0  0  0  0  0  0  0
   -1.3124   -1.7623   -1.1551 H   0  0  0  0  0  0  0  0  0  0  0  0
    0.0456   -0.2582   -1.9357 H   0  0  0  0  0  0  0  0  0  0  0  0
  1  2  2  0      
  2  3  1  0      
  2 15  1  0      
  3  4  1  0      
  3 24  1  0      
  4  5  2  0      
 14  4  1  0      
  6  5  1  0      
  6  7  1  0      
  6 13  2  0      
  7  8  2  0      
 12  7  1  0      
  8  9  1  0      
  8 25  1  0      
  9 10  2  0      
  9 26  1  0      
 10 11  1  0      
 12 11  2  0      
 11 27  1  0      
 12 28  1  0      
 13 14  1  0      
 13 29  1  0      
 15 16  1  0      
 15 30  1  0      
 16 17  1  0      
 16 31  1  0      
 16 32  1  0      
 17 18  1  0      
 17 23  2  0      
 18 19  2  0      
 18 33  1  0      
 19 20  1  0      
 19 34  1  0      
 20 21  2  0      
 20 35  1  0      
 21 22  1  0      
 21 23  1  0      
 22 36  1  0      
 23 37  1  0      
M  END
