
  Chem3D Core 15.001261617433D

 51 54  0  0  0  0  0  0  0  0999 V2000
    2.4405    5.7228    0.0217 S   0  0  0  0  0  0  0  0  0  0  0  0
   -1.0607    4.3417   -0.8723 F   0  0  0  0  0  0  0  0  0  0  0  0
   -2.5805    1.2220   -2.1867 O   0  0  0  0  0  0  0  0  0  0  0  0
   -3.9525    2.7948   -1.4882 O   0  0  0  0  0  0  0  0  0  0  0  0
    0.5750   -1.9005   -3.7133 O   0  0  0  0  0  0  0  0  0  0  0  0
    2.8098    4.8135    1.1118 O   0  0  0  0  0  0  0  0  0  0  0  0
    3.3584    6.7806   -0.4077 O   0  0  0  0  0  0  0  0  0  0  0  0
    0.7860    5.9834   -0.2077 N   0  0  0  0  0  0  0  0  0  0  0  0
    0.1250    6.0269    1.9219 N   0  0  0  0  0  0  0  0  0  0  0  0
    3.0683    4.5681   -1.0699 N   0  0  0  0  0  0  0  0  0  0  0  0
    1.2063   -4.0491   -3.3322 N   0  0  0  0  0  0  0  0  0  0  0  0
   -0.9657   -3.5646   -3.5640 N   0  0  0  0  0  0  0  0  0  0  0  0
   -2.3709    2.1921   -0.0134 C   0  0  0  0  0  0  0  0  0  0  0  0
   -1.2946    1.4064    0.2286 C   0  0  0  0  0  0  0  0  0  0  0  0
   -2.8625    3.2182    1.0025 C   0  0  0  0  0  0  0  0  0  0  0  0
   -0.8206    0.5797   -0.7323 C   0  0  0  0  0  0  0  0  0  0  0  0
   -1.8038    4.2550    1.3225 C   0  0  0  0  0  0  0  0  0  0  0  0
   -1.4587    0.5012   -1.9169 C   0  0  0  0  0  0  0  0  0  0  0  0
   -2.9921    2.0941   -1.2247 C   0  0  0  0  0  0  0  0  0  0  0  0
   -0.5906    1.4598    1.5767 C   0  0  0  0  0  0  0  0  0  0  0  0
    0.2881   -0.1695   -0.5701 C   0  0  0  0  0  0  0  0  0  0  0  0
   -0.9791   -0.3205   -2.8692 C   0  0  0  0  0  0  0  0  0  0  0  0
   -0.9655    4.7388    0.3882 C   0  0  0  0  0  0  0  0  0  0  0  0
   -1.6472    4.7213    2.5727 C   0  0  0  0  0  0  0  0  0  0  0  0
    0.1190   -1.0795   -2.7175 C   0  0  0  0  0  0  0  0  0  0  0  0
    0.7481   -0.9779   -1.5359 C   0  0  0  0  0  0  0  0  0  0  0  0
    0.0029    5.6152    0.7284 C   0  0  0  0  0  0  0  0  0  0  0  0
   -0.6677    5.6051    2.8113 C   0  0  0  0  0  0  0  0  0  0  0  0
    0.2583   -3.2261   -3.5275 C   0  0  0  0  0  0  0  0  0  0  0  0
    2.1890    3.4438   -1.3896 C   0  0  0  0  0  0  0  0  0  0  0  0
    0.9285   -5.2716   -3.1647 C   0  0  0  0  0  0  0  0  0  0  0  0
   -1.2684   -4.7815   -3.3991 C   0  0  0  0  0  0  0  0  0  0  0  0
   -0.3345   -5.7191   -3.1880 C   0  0  0  0  0  0  0  0  0  0  0  0
    0.4524    5.5790   -1.1219 H   0  0  0  0  0  0  0  0  0  0  0  0
    3.9525    4.1999   -0.6780 H   0  0  0  0  0  0  0  0  0  0  0  0
   -3.7571    3.7948    0.6805 H   0  0  0  0  0  0  0  0  0  0  0  0
   -3.2045    2.6719    1.9109 H   0  0  0  0  0  0  0  0  0  0  0  0
   -0.4462    0.4402    1.9989 H   0  0  0  0  0  0  0  0  0  0  0  0
    0.3945    1.9722    1.4848 H   0  0  0  0  0  0  0  0  0  0  0  0
   -1.1512    1.9783    2.3791 H   0  0  0  0  0  0  0  0  0  0  0  0
    0.8826   -0.1481    0.3566 H   0  0  0  0  0  0  0  0  0  0  0  0
   -1.5182   -0.3744   -3.8308 H   0  0  0  0  0  0  0  0  0  0  0  0
   -2.2988    4.3796    3.3925 H   0  0  0  0  0  0  0  0  0  0  0  0
    1.6623   -1.5707   -1.3612 H   0  0  0  0  0  0  0  0  0  0  0  0
   -0.5120    5.9964    3.8308 H   0  0  0  0  0  0  0  0  0  0  0  0
    1.3145    3.7719   -1.9956 H   0  0  0  0  0  0  0  0  0  0  0  0
    2.7528    2.6996   -1.9969 H   0  0  0  0  0  0  0  0  0  0  0  0
    1.8293    2.9200   -0.4750 H   0  0  0  0  0  0  0  0  0  0  0  0
    1.7704   -5.9630   -2.9968 H   0  0  0  0  0  0  0  0  0  0  0  0
   -2.3380   -5.0456   -3.4339 H   0  0  0  0  0  0  0  0  0  0  0  0
   -0.5868   -6.7806   -3.0429 H   0  0  0  0  0  0  0  0  0  0  0  0
  1  6  2  0      
  1  7  2  0      
  1  8  1  0      
  1 10  1  0      
  2 23  1  0      
  3 18  1  0      
 19  3  1  0      
  4 19  2  0      
  5 25  1  0      
  5 29  1  0      
  8 27  1  0      
  8 34  1  0      
 27  9  2  0      
  9 28  1  0      
 10 30  1  0      
 10 35  1  0      
 11 29  2  0      
 31 11  1  0      
 29 12  1  0      
 32 12  2  0      
 14 13  2  0      
 13 15  1  0      
 13 19  1  0      
 16 14  1  0      
 14 20  1  0      
 15 17  1  0      
 15 36  1  0      
 15 37  1  0      
 16 18  1  0      
 21 16  2  0      
 17 23  2  0      
 24 17  1  0      
 18 22  2  0      
 20 38  1  0      
 20 39  1  0      
 20 40  1  0      
 26 21  1  0      
 21 41  1  0      
 22 25  1  0      
 22 42  1  0      
 23 27  1  0      
 24 28  2  0      
 24 43  1  0      
 26 25  2  0      
 26 44  1  0      
 28 45  1  0      
 30 46  1  0      
 30 47  1  0      
 30 48  1  0      
 33 31  2  0      
 31 49  1  0      
 32 33  1  0      
 32 50  1  0      
 33 51  1  0      
M  END
