
  Chem3D Core 15.008141513093D

 59 61  0  0  0  0  0  0  0  0999 V2000
   -6.4427    0.2899    1.3444 C   0  0  0  0  0  0  0  0  0  0  0  0
   -6.0133   -0.8684    1.9031 C   0  0  0  0  0  0  0  0  0  0  0  0
   -6.7366   -1.9992    1.9498 C   0  0  0  0  0  0  0  0  0  0  0  0
   -7.9616   -2.0419    1.4140 C   0  0  0  0  0  0  0  0  0  0  0  0
   -8.4311   -0.9312    0.8354 C   0  0  0  0  0  0  0  0  0  0  0  0
   -7.6847    0.1847    0.8090 C   0  0  0  0  0  0  0  0  0  0  0  0
   -5.7525    1.3895    1.2849 N   0  0  0  0  0  0  0  0  0  0  0  0
   -6.3551    2.5387    1.2138 C   0  0  0  0  0  0  0  0  0  0  0  0
   -5.8286    3.6601    0.6630 C   0  0  0  0  0  0  0  0  0  0  0  0
   -6.4621    4.8430    0.6043 C   0  0  0  0  0  0  0  0  0  0  0  0
   -7.6893    4.9799    1.1187 C   0  0  0  0  0  0  0  0  0  0  0  0
   -8.2527    3.9090    1.6884 C   0  0  0  0  0  0  0  0  0  0  0  0
   -7.5946    2.7392    1.7274 C   0  0  0  0  0  0  0  0  0  0  0  0
   -4.4551    1.3407    1.2969 C   0  0  0  0  0  0  0  0  0  0  0  0
   -3.7346    2.3608    1.5590 N   0  0  0  0  0  0  0  0  0  0  0  0
   -2.4706    2.3427    1.5798 C   0  0  0  0  0  0  0  0  0  0  0  0
   -1.7599    1.2359    1.3196 C   0  0  0  0  0  0  0  0  0  0  0  0
   -2.5486    0.1869    1.0465 C   0  0  0  0  0  0  0  0  0  0  0  0
   -3.8106    0.2683    1.0466 N   0  0  0  0  0  0  0  0  0  0  0  0
   -0.3980    1.2134    1.3371 C   0  0  0  0  0  0  0  0  0  0  0  0
    0.2802    2.1823    1.5889 O   0  0  0  0  0  0  0  0  0  0  0  0
    0.1755    0.0064    1.0489 N   0  0  0  0  0  0  0  0  0  0  0  0
    1.6268   -0.2014    1.0430 C   0  0  0  0  0  0  0  0  0  0  0  0
    1.9575   -1.4863    0.2691 C   0  0  0  0  0  0  0  0  0  0  0  0
    3.4692   -1.7640    0.2362 C   0  0  0  0  0  0  0  0  0  0  0  0
    3.8035   -3.0382   -0.5565 C   0  0  0  0  0  0  0  0  0  0  0  0
    5.3146   -3.3213   -0.5805 C   0  0  0  0  0  0  0  0  0  0  0  0
    5.6471   -4.5859   -1.3873 C   0  0  0  0  0  0  0  0  0  0  0  0
    7.1282   -4.9193   -1.3712 C   0  0  0  0  0  0  0  0  0  0  0  0
    7.6005   -5.9464   -0.9524 O   0  0  0  0  0  0  0  0  0  0  0  0
    7.9413   -3.9537   -1.8933 N   0  0  0  0  0  0  0  0  0  0  0  0
    9.2393   -4.1713   -1.9104 O   0  0  0  0  0  0  0  0  0  0  0  0
   -5.0566   -0.9473    2.4451 H   0  0  0  0  0  0  0  0  0  0  0  0
   -6.3349   -2.8978    2.4492 H   0  0  0  0  0  0  0  0  0  0  0  0
   -8.5631   -2.9650    1.4438 H   0  0  0  0  0  0  0  0  0  0  0  0
   -9.4263   -0.9481    0.3587 H   0  0  0  0  0  0  0  0  0  0  0  0
   -8.1434    1.0071    0.2329 H   0  0  0  0  0  0  0  0  0  0  0  0
   -4.8595    3.6648    0.1376 H   0  0  0  0  0  0  0  0  0  0  0  0
   -5.9840    5.7077    0.1123 H   0  0  0  0  0  0  0  0  0  0  0  0
   -8.2176    5.9464    1.0789 H   0  0  0  0  0  0  0  0  0  0  0  0
   -9.2519    4.0025    2.1476 H   0  0  0  0  0  0  0  0  0  0  0  0
   -8.1250    1.9547    2.2949 H   0  0  0  0  0  0  0  0  0  0  0  0
   -1.9947    3.3054    1.8305 H   0  0  0  0  0  0  0  0  0  0  0  0
   -2.1606   -0.8140    0.7999 H   0  0  0  0  0  0  0  0  0  0  0  0
   -0.4278   -0.7980    0.8899 H   0  0  0  0  0  0  0  0  0  0  0  0
    2.1416    0.6568    0.5510 H   0  0  0  0  0  0  0  0  0  0  0  0
    1.9870   -0.2790    2.0951 H   0  0  0  0  0  0  0  0  0  0  0  0
    1.4317   -2.3485    0.7447 H   0  0  0  0  0  0  0  0  0  0  0  0
    1.5727   -1.3957   -0.7749 H   0  0  0  0  0  0  0  0  0  0  0  0
    3.9950   -0.8945   -0.2252 H   0  0  0  0  0  0  0  0  0  0  0  0
    3.8479   -1.8672    1.2809 H   0  0  0  0  0  0  0  0  0  0  0  0
    3.2712   -3.9069   -0.1013 H   0  0  0  0  0  0  0  0  0  0  0  0
    3.4319   -2.9301   -1.6033 H   0  0  0  0  0  0  0  0  0  0  0  0
    5.8444   -2.4432   -1.0203 H   0  0  0  0  0  0  0  0  0  0  0  0
    5.6850   -3.4459    0.4651 H   0  0  0  0  0  0  0  0  0  0  0  0
    5.0815   -5.4530   -0.9722 H   0  0  0  0  0  0  0  0  0  0  0  0
    5.3297   -4.4616   -2.4492 H   0  0  0  0  0  0  0  0  0  0  0  0
    7.5438   -3.0983   -2.2502 H   0  0  0  0  0  0  0  0  0  0  0  0
    9.4263   -5.0221   -1.5418 H   0  0  0  0  0  0  0  0  0  0  0  0
  1  2  1  0      
  1  6  2  0      
  1  7  1  0      
  2  3  2  0      
  2 33  1  0      
  3  4  1  0      
  3 34  1  0      
  4  5  2  0      
  4 35  1  0      
  5  6  1  0      
  5 36  1  0      
  6 37  1  0      
  8  7  1  0      
  7 14  1  0      
  8  9  1  0      
  8 13  2  0      
  9 10  2  0      
  9 38  1  0      
 10 11  1  0      
 10 39  1  0      
 11 12  2  0      
 11 40  1  0      
 12 13  1  0      
 12 41  1  0      
 13 42  1  0      
 15 14  2  0      
 14 19  1  0      
 16 15  1  0      
 17 16  2  0      
 16 43  1  0      
 18 17  1  0      
 17 20  1  0      
 18 19  2  0      
 18 44  1  0      
 20 21  2  0      
 20 22  1  0      
 23 22  1  0      
 22 45  1  0      
 23 24  1  0      
 23 46  1  0      
 23 47  1  0      
 24 25  1  0      
 24 48  1  0      
 24 49  1  0      
 25 26  1  0      
 25 50  1  0      
 25 51  1  0      
 26 27  1  0      
 26 52  1  0      
 26 53  1  0      
 27 28  1  0      
 27 54  1  0      
 27 55  1  0      
 28 29  1  0      
 28 56  1  0      
 28 57  1  0      
 30 29  2  0      
 31 29  1  0      
 32 31  1  0      
 31 58  1  0      
 32 59  1  0      
M  END
