
  Chem3D Core 15.003291611153D

 36 38  0  0  0  0  0  0  0  0999 V2000
   -0.6899    3.4022   -1.4818 C   0  0  0  0  0  0  0  0  0  0  0  0
    0.0520    3.4363   -0.3012 C   0  0  0  0  0  0  0  0  0  0  0  0
   -0.5322    3.9029    0.8763 C   0  0  0  0  0  0  0  0  0  0  0  0
   -1.8582    4.3355    0.8731 C   0  0  0  0  0  0  0  0  0  0  0  0
   -2.6001    4.3015   -0.3075 C   0  0  0  0  0  0  0  0  0  0  0  0
   -2.0159    3.8348   -1.4850 C   0  0  0  0  0  0  0  0  0  0  0  0
    1.3231    3.0217   -0.2982 C   0  0  0  0  0  0  0  0  0  0  0  0
    3.1963    1.6909   -0.1408 C   0  0  0  0  0  0  0  0  0  0  0  0
    2.4995    3.8826   -0.5597 C   0  0  0  0  0  0  0  0  0  0  0  0
    1.7199    1.7739   -0.0598 C   0  0  0  0  0  0  0  0  0  0  0  0
    0.9067    0.7481    0.2124 C   0  0  0  0  0  0  0  0  0  0  0  0
    0.5930   -1.5667    0.8287 C   0  0  0  0  0  0  0  0  0  0  0  0
    1.4414   -0.4965    0.5449 C   0  0  0  0  0  0  0  0  0  0  0  0
   -0.4763    0.9226    0.1638 C   0  0  0  0  0  0  0  0  0  0  0  0
   -1.3247   -0.1476    0.4477 C   0  0  0  0  0  0  0  0  0  0  0  0
   -0.7900   -1.3922    0.7801 C   0  0  0  0  0  0  0  0  0  0  0  0
    3.6459    3.0208   -0.4533 O   0  0  0  0  0  0  0  0  0  0  0  0
    2.4967    5.0643   -0.8104 O   0  0  0  0  0  0  0  0  0  0  0  0
   -0.9060   -4.2104    1.5307 C   0  0  0  0  0  0  0  0  0  0  0  0
   -1.8787   -2.7656    1.1443 S   0  0  0  0  0  0  0  0  0  0  0  0
   -2.7161   -2.4298    2.2795 O   0  0  0  0  0  0  0  0  0  0  0  0
   -2.7134   -3.0396   -0.0093 O   0  0  0  0  0  0  0  0  0  0  0  0
   -0.2292    3.0342   -2.4104 H   0  0  0  0  0  0  0  0  0  0  0  0
    0.0528    3.9298    1.8075 H   0  0  0  0  0  0  0  0  0  0  0  0
   -2.3189    4.7035    1.8017 H   0  0  0  0  0  0  0  0  0  0  0  0
   -3.6459    4.6428   -0.3100 H   0  0  0  0  0  0  0  0  0  0  0  0
   -2.6010    3.8079   -2.4162 H   0  0  0  0  0  0  0  0  0  0  0  0
    3.6195    1.3578    0.8331 H   0  0  0  0  0  0  0  0  0  0  0  0
    3.5242    0.9558   -0.9095 H   0  0  0  0  0  0  0  0  0  0  0  0
    1.0146   -2.5483    1.0908 H   0  0  0  0  0  0  0  0  0  0  0  0
    2.5321   -0.6341    0.5833 H   0  0  0  0  0  0  0  0  0  0  0  0
   -0.8980    1.9041   -0.0984 H   0  0  0  0  0  0  0  0  0  0  0  0
   -2.4154   -0.0100    0.4094 H   0  0  0  0  0  0  0  0  0  0  0  0
   -1.5829   -5.0643    1.7572 H   0  0  0  0  0  0  0  0  0  0  0  0
   -0.2633   -4.4681    0.6594 H   0  0  0  0  0  0  0  0  0  0  0  0
   -0.2653   -4.0001    2.4162 H   0  0  0  0  0  0  0  0  0  0  0  0
  1  2  1  0      
  1  6  2  0      
  1 23  1  0      
  2  3  2  0      
  2  7  1  0      
  3  4  1  0      
  3 24  1  0      
  4  5  2  0      
  4 25  1  0      
  5  6  1  0      
  5 26  1  0      
  6 27  1  0      
  7  9  1  0      
  7 10  2  0      
 10  8  1  0      
  8 17  1  0      
  8 28  1  0      
  8 29  1  0      
 17  9  1  0      
  9 18  2  0      
 10 11  1  0      
 11 13  1  0      
 11 14  2  0      
 13 12  2  0      
 12 16  1  0      
 12 30  1  0      
 13 31  1  0      
 15 14  1  0      
 14 32  1  0      
 16 15  2  0      
 15 33  1  0      
 16 20  1  0      
 19 20  1  0      
 19 34  1  0      
 19 35  1  0      
 19 36  1  0      
 20 21  2  0      
 20 22  2  0      
M  END
