
  Chem3D Core 15.010021516423D

 40 42  0  0  0  0  0  0  0  0999 V2000
    0.7270    1.6896   -1.2484 C   0  0  0  0  0  0  0  0  0  0  0  0
    1.4246    0.6043   -0.8612 C   0  0  0  0  0  0  0  0  0  0  0  0
    0.8459   -0.5172   -0.3946 C   0  0  0  0  0  0  0  0  0  0  0  0
   -0.4980   -0.5279   -0.3464 C   0  0  0  0  0  0  0  0  0  0  0  0
   -1.2057    0.5270   -0.7774 C   0  0  0  0  0  0  0  0  0  0  0  0
   -0.6244    1.6372   -1.2706 C   0  0  0  0  0  0  0  0  0  0  0  0
   -1.3106    2.7447   -1.7108 O   0  0  0  0  0  0  0  0  0  0  0  0
    1.3820    2.7830   -1.7606 O   0  0  0  0  0  0  0  0  0  0  0  0
    1.7313    3.7472   -0.7885 C   0  0  0  0  0  0  0  0  0  0  0  0
    2.3293    4.9706   -1.4713 C   0  0  0  0  0  0  0  0  0  0  0  0
    1.3552    6.0028   -1.9886 C   0  0  0  0  0  0  0  0  0  0  0  0
    2.1852    6.2977   -0.7650 C   0  0  0  0  0  0  0  0  0  0  0  0
   -2.6774    2.9193   -1.3342 C   0  0  0  0  0  0  0  0  0  0  0  0
   -3.1083    4.1386   -1.7359 F   0  0  0  0  0  0  0  0  0  0  0  0
   -2.8452    2.8310    0.0046 F   0  0  0  0  0  0  0  0  0  0  0  0
    1.6064   -1.5775    0.0096 C   0  0  0  0  0  0  0  0  0  0  0  0
    2.8131   -1.5643    0.0393 O   0  0  0  0  0  0  0  0  0  0  0  0
    0.9103   -2.7192    0.2788 N   0  0  0  0  0  0  0  0  0  0  0  0
    1.2272   -3.8988    0.8584 C   0  0  0  0  0  0  0  0  0  0  0  0
    2.3476   -5.4481    2.1818 C   0  0  0  0  0  0  0  0  0  0  0  0
    0.6415   -6.1512    1.0612 C   0  0  0  0  0  0  0  0  0  0  0  0
    0.4133   -4.9329    0.5416 C   0  0  0  0  0  0  0  0  0  0  0  0
    2.2177   -4.1842    1.7348 C   0  0  0  0  0  0  0  0  0  0  0  0
    3.2841   -3.0236    2.4560 Cl  0  0  0  0  0  0  0  0  0  0  0  0
   -0.9291   -4.7567   -0.5449 Cl  0  0  0  0  0  0  0  0  0  0  0  0
    1.5878   -6.4057    1.8591 N   0  0  0  0  0  0  0  0  0  0  0  0
    2.5222    0.6810   -0.9407 H   0  0  0  0  0  0  0  0  0  0  0  0
   -1.0731   -1.3859    0.0378 H   0  0  0  0  0  0  0  0  0  0  0  0
   -2.3031    0.4447   -0.7245 H   0  0  0  0  0  0  0  0  0  0  0  0
    0.8248    4.0137   -0.1986 H   0  0  0  0  0  0  0  0  0  0  0  0
    2.4867    3.3095   -0.0959 H   0  0  0  0  0  0  0  0  0  0  0  0
    3.2417    4.7719   -2.0455 H   0  0  0  0  0  0  0  0  0  0  0  0
    1.6161    6.5169   -2.9124 H   0  0  0  0  0  0  0  0  0  0  0  0
    0.2913    5.8179   -1.8494 H   0  0  0  0  0  0  0  0  0  0  0  0
    1.6790    6.3158    0.1984 H   0  0  0  0  0  0  0  0  0  0  0  0
    3.0029    7.0095   -0.8688 H   0  0  0  0  0  0  0  0  0  0  0  0
   -3.2841    2.1633   -1.8423 H   0  0  0  0  0  0  0  0  0  0  0  0
   -0.0070   -2.7757   -0.1351 H   0  0  0  0  0  0  0  0  0  0  0  0
    3.1311   -5.7164    2.9124 H   0  0  0  0  0  0  0  0  0  0  0  0
   -0.0046   -7.0095    0.8087 H   0  0  0  0  0  0  0  0  0  0  0  0
  1  2  1  0      
  1  6  2  0      
  1  8  1  0      
  2  3  2  0      
  2 27  1  0      
  3  4  1  0      
  3 16  1  0      
  4  5  2  0      
  4 28  1  0      
  5  6  1  0      
  5 29  1  0      
  6  7  1  0      
  7 13  1  0      
  8  9  1  0      
  9 10  1  0      
  9 30  1  0      
  9 31  1  0      
 10 11  1  0      
 10 12  1  0      
 10 32  1  0      
 11 12  1  0      
 11 33  1  0      
 11 34  1  0      
 12 35  1  0      
 12 36  1  0      
 13 14  1  0      
 13 15  1  0      
 13 37  1  0      
 16 17  2  0      
 16 18  1  0      
 18 19  1  0      
 18 38  1  0      
 22 19  1  0      
 19 23  2  0      
 23 20  1  0      
 20 26  2  0      
 20 39  1  0      
 22 21  2  0      
 26 21  1  0      
 21 40  1  0      
 22 25  1  0      
 23 24  1  0      
M  END
