
  Chem3D Core 15.003181609343D

 41 42  0  0  0  0  0  0  0  0999 V2000
    3.3363   -2.9990    1.7178 C   0  0  0  0  0  0  0  0  0  0  0  0
    3.9065   -4.1191    2.1896 C   0  0  0  0  0  0  0  0  0  0  0  0
    3.2552   -5.2878    2.0860 C   0  0  0  0  0  0  0  0  0  0  0  0
    2.0423   -5.3300    1.5146 C   0  0  0  0  0  0  0  0  0  0  0  0
    1.4819   -4.2042    1.0465 C   0  0  0  0  0  0  0  0  0  0  0  0
    2.1215   -3.0247    1.1409 C   0  0  0  0  0  0  0  0  0  0  0  0
    5.1029   -4.0716    2.7533 F   0  0  0  0  0  0  0  0  0  0  0  0
   -0.0282   -0.0344    1.3392 C   0  0  0  0  0  0  0  0  0  0  0  0
   -1.4825    1.6413    2.1426 C   0  0  0  0  0  0  0  0  0  0  0  0
   -0.7895    0.5052    2.3112 C   0  0  0  0  0  0  0  0  0  0  0  0
    0.0024    0.6416    0.1729 C   0  0  0  0  0  0  0  0  0  0  0  0
   -0.6867    1.7792   -0.0092 C   0  0  0  0  0  0  0  0  0  0  0  0
   -1.4405    2.2993    0.9733 C   0  0  0  0  0  0  0  0  0  0  0  0
   -2.2150    3.5769    0.7526 C   0  0  0  0  0  0  0  0  0  0  0  0
   -3.3489    3.2746   -0.1177 N   0  0  0  0  0  0  0  0  0  0  0  0
   -4.4178    5.5131    0.0909 C   0  0  0  0  0  0  0  0  0  0  0  0
   -3.9033    4.4157   -0.8528 C   0  0  0  0  0  0  0  0  0  0  0  0
   -4.7747    4.0288   -1.4387 H   0  0  0  0  0  0  0  0  0  0  0  0
   -2.9161    4.9230   -1.8949 C   0  0  0  0  0  0  0  0  0  0  0  0
   -2.6962    6.0812   -2.1380 O   0  0  0  0  0  0  0  0  0  0  0  0
   -2.2608    3.9458   -2.5770 N   0  0  0  0  0  0  0  0  0  0  0  0
    1.4832   -1.7566    0.6108 C   0  0  0  0  0  0  0  0  0  0  0  0
    0.6478   -1.2011    1.6055 O   0  0  0  0  0  0  0  0  0  0  0  0
    3.8789   -2.0439    1.8109 H   0  0  0  0  0  0  0  0  0  0  0  0
    3.7163   -6.2122    2.4712 H   0  0  0  0  0  0  0  0  0  0  0  0
    1.5057   -6.2900    1.4309 H   0  0  0  0  0  0  0  0  0  0  0  0
    0.4828   -4.2522    0.5824 H   0  0  0  0  0  0  0  0  0  0  0  0
   -2.0920    2.0316    2.9743 H   0  0  0  0  0  0  0  0  0  0  0  0
   -0.8474   -0.0091    3.2863 H   0  0  0  0  0  0  0  0  0  0  0  0
    0.5984    0.2796   -0.6796 H   0  0  0  0  0  0  0  0  0  0  0  0
   -0.6301    2.2935   -0.9830 H   0  0  0  0  0  0  0  0  0  0  0  0
   -2.5689    4.0182    1.7120 H   0  0  0  0  0  0  0  0  0  0  0  0
   -1.5289    4.3178    0.2811 H   0  0  0  0  0  0  0  0  0  0  0  0
   -3.0458    2.5276   -0.7910 H   0  0  0  0  0  0  0  0  0  0  0  0
   -4.9882    6.2900   -0.4682 H   0  0  0  0  0  0  0  0  0  0  0  0
   -5.1029    5.0880    0.8599 H   0  0  0  0  0  0  0  0  0  0  0  0
   -3.5853    6.0275    0.6216 H   0  0  0  0  0  0  0  0  0  0  0  0
   -1.6003    4.2290   -3.2863 H   0  0  0  0  0  0  0  0  0  0  0  0
   -2.4112    2.9709   -2.3560 H   0  0  0  0  0  0  0  0  0  0  0  0
    2.2724   -1.0198    0.3365 H   0  0  0  0  0  0  0  0  0  0  0  0
    0.8772   -1.9963   -0.2928 H   0  0  0  0  0  0  0  0  0  0  0  0
  1  2  1  0      
  1  6  2  0      
  1 24  1  0      
  2  3  2  0      
  2  7  1  0      
  3  4  1  0      
  3 25  1  0      
  4  5  2  0      
  4 26  1  0      
  5  6  1  0      
  5 27  1  0      
  6 22  1  0      
  8 10  1  0      
  8 11  2  0      
  8 23  1  0      
 10  9  2  0      
  9 13  1  0      
  9 28  1  0      
 10 29  1  0      
 12 11  1  0      
 11 30  1  0      
 13 12  2  0      
 12 31  1  0      
 13 14  1  0      
 14 15  1  0      
 14 32  1  0      
 14 33  1  0      
 15 17  1  0      
 15 34  1  0      
 17 16  1  0      
 16 35  1  0      
 16 36  1  0      
 16 37  1  0      
 17 18  1  0      
 17 19  1  0      
 19 20  2  0      
 19 21  1  0      
 21 38  1  0      
 21 39  1  0      
 22 23  1  0      
 22 40  1  0      
 22 41  1  0      
M  END
