
  Chem3D Core 15.010191517393D

 60 64  0  0  0  0  0  0  0  0999 V2000
    2.8071   -3.0618   -0.1925 Br  0  0  0  0  0  0  0  0  0  0  0  0
    2.1928    3.0045   -3.6716 S   0  0  0  0  0  0  0  0  0  0  0  0
    0.1978    1.1807   -4.1385 F   0  0  0  0  0  0  0  0  0  0  0  0
   -0.4353    2.8801   -3.0041 F   0  0  0  0  0  0  0  0  0  0  0  0
   -0.1697    3.0506   -5.1300 F   0  0  0  0  0  0  0  0  0  0  0  0
   -1.1942   -1.8054    3.0543 O   0  0  0  0  0  0  0  0  0  0  0  0
    1.1806    0.3502   -1.4179 O   0  0  0  0  0  0  0  0  0  0  0  0
    2.5989    2.3130   -4.8911 O   0  0  0  0  0  0  0  0  0  0  0  0
    1.8061    4.4118   -3.6664 O   0  0  0  0  0  0  0  0  0  0  0  0
   -3.6653   -1.9430    1.5777 N   0  0  0  0  0  0  0  0  0  0  0  0
   -5.4563   -1.0922    2.1001 N   0  0  0  0  0  0  0  0  0  0  0  0
   -2.2729   -0.6419    4.5561 N   0  0  0  0  0  0  0  0  0  0  0  0
    2.6797    2.3400   -2.1943 N   0  0  0  0  0  0  0  0  0  0  0  0
   -4.9724    0.0212    4.1632 C   0  0  0  0  0  0  0  0  0  0  0  0
   -4.4031    1.4153    4.0333 C   0  0  0  0  0  0  0  0  0  0  0  0
   -5.8697    1.1795    3.7897 C   0  0  0  0  0  0  0  0  0  0  0  0
   -4.6016   -0.8027    2.9917 C   0  0  0  0  0  0  0  0  0  0  0  0
   -3.4131   -1.3645    2.6809 C   0  0  0  0  0  0  0  0  0  0  0  0
   -4.8731   -1.7922    1.2229 C   0  0  0  0  0  0  0  0  0  0  0  0
   -2.6994   -2.7197    0.7772 C   0  0  0  0  0  0  0  0  0  0  0  0
   -5.6559   -2.2653    0.0268 C   0  0  0  0  0  0  0  0  0  0  0  0
   -2.2455   -1.3102    3.3770 C   0  0  0  0  0  0  0  0  0  0  0  0
   -1.6522   -1.8285    0.1378 C   0  0  0  0  0  0  0  0  0  0  0  0
   -6.1480   -3.7043    0.2224 C   0  0  0  0  0  0  0  0  0  0  0  0
   -0.3743   -2.2488    0.0526 C   0  0  0  0  0  0  0  0  0  0  0  0
   -1.9753   -0.6102   -0.3421 C   0  0  0  0  0  0  0  0  0  0  0  0
    0.5404   -1.4408   -0.4975 C   0  0  0  0  0  0  0  0  0  0  0  0
    0.2072   -0.2380   -0.9610 C   0  0  0  0  0  0  0  0  0  0  0  0
   -1.0553    0.2004   -0.8914 C   0  0  0  0  0  0  0  0  0  0  0  0
    1.8580   -1.5169   -0.7285 C   0  0  0  0  0  0  0  0  0  0  0  0
    2.2043   -0.3405   -1.3119 C   0  0  0  0  0  0  0  0  0  0  0  0
    3.3949    0.1539   -1.7481 C   0  0  0  0  0  0  0  0  0  0  0  0
    3.5711    1.4260   -2.2020 C   0  0  0  0  0  0  0  0  0  0  0  0
    4.4973   -0.6250   -1.7934 C   0  0  0  0  0  0  0  0  0  0  0  0
    4.7720    1.8373   -2.6630 C   0  0  0  0  0  0  0  0  0  0  0  0
    5.6904   -0.2226   -2.2545 C   0  0  0  0  0  0  0  0  0  0  0  0
    5.8357    1.0271   -2.7023 C   0  0  0  0  0  0  0  0  0  0  0  0
    0.3129    2.4959   -4.0272 C   0  0  0  0  0  0  0  0  0  0  0  0
   -3.1147   -0.2139    4.9026 H   0  0  0  0  0  0  0  0  0  0  0  0
   -1.4118   -0.5975    5.0804 H   0  0  0  0  0  0  0  0  0  0  0  0
    1.8413    2.0757   -1.6281 H   0  0  0  0  0  0  0  0  0  0  0  0
   -5.0779   -0.4760    5.1300 H   0  0  0  0  0  0  0  0  0  0  0  0
   -4.1203    1.9210    4.9556 H   0  0  0  0  0  0  0  0  0  0  0  0
   -3.7835    1.6579    3.1710 H   0  0  0  0  0  0  0  0  0  0  0  0
   -6.2250    1.2959    2.7676 H   0  0  0  0  0  0  0  0  0  0  0  0
   -6.5686    1.5222    4.5516 H   0  0  0  0  0  0  0  0  0  0  0  0
   -2.2533   -3.5197    1.4106 H   0  0  0  0  0  0  0  0  0  0  0  0
   -3.1949   -3.2706   -0.0534 H   0  0  0  0  0  0  0  0  0  0  0  0
   -6.5368   -1.5985   -0.1317 H   0  0  0  0  0  0  0  0  0  0  0  0
   -5.0344   -2.1780   -0.8937 H   0  0  0  0  0  0  0  0  0  0  0  0
   -6.7305   -4.0499   -0.6626 H   0  0  0  0  0  0  0  0  0  0  0  0
   -5.2999   -4.4118    0.3645 H   0  0  0  0  0  0  0  0  0  0  0  0
   -6.8091   -3.7825    1.1160 H   0  0  0  0  0  0  0  0  0  0  0  0
   -0.0933   -3.2402    0.4392 H   0  0  0  0  0  0  0  0  0  0  0  0
   -3.0163   -0.2526   -0.2857 H   0  0  0  0  0  0  0  0  0  0  0  0
   -1.3311    1.1960   -1.2712 H   0  0  0  0  0  0  0  0  0  0  0  0
    4.4930   -1.6745   -1.4876 H   0  0  0  0  0  0  0  0  0  0  0  0
    4.9344    2.8753   -3.0050 H   0  0  0  0  0  0  0  0  0  0  0  0
    6.5500   -0.9143   -2.2761 H   0  0  0  0  0  0  0  0  0  0  0  0
    6.8091    1.3816   -3.0794 H   0  0  0  0  0  0  0  0  0  0  0  0
  1 30  1  0      
  2  8  2  0      
  2  9  2  0      
  2 13  1  0      
  2 38  1  0      
  3 38  1  0      
  4 38  1  0      
  5 38  1  0      
  6 22  2  0      
  7 28  1  0      
 31  7  1  0      
 18 10  1  0      
 10 19  1  0      
 10 20  1  0      
 17 11  1  0      
 19 11  2  0      
 12 22  1  0      
 12 39  1  0      
 12 40  1  0      
 13 33  1  0      
 13 41  1  0      
 14 15  1  0      
 14 16  1  0      
 14 17  1  0      
 14 42  1  0      
 15 16  1  0      
 15 43  1  0      
 15 44  1  0      
 16 45  1  0      
 16 46  1  0      
 17 18  2  0      
 18 22  1  0      
 19 21  1  0      
 20 23  1  0      
 20 47  1  0      
 20 48  1  0      
 21 24  1  0      
 21 49  1  0      
 21 50  1  0      
 23 25  1  0      
 26 23  2  0      
 24 51  1  0      
 24 52  1  0      
 24 53  1  0      
 25 27  2  0      
 25 54  1  0      
 29 26  1  0      
 26 55  1  0      
 28 27  1  0      
 27 30  1  0      
 28 29  2  0      
 29 56  1  0      
 31 30  2  0      
 31 32  1  0      
 32 33  1  0      
 32 34  2  0      
 33 35  2  0      
 36 34  1  0      
 34 57  1  0      
 35 37  1  0      
 35 58  1  0      
 37 36  2  0      
 36 59  1  0      
 37 60  1  0      
M  END
