
  Chem3D Core 15.011131516513D

  0  0  0     0  0              0 V3000
M  V30 BEGIN CTAB
M  V30 COUNTS 45 49 0 0 0
M  V30 BEGIN ATOM
M  V30 1 N 6.787838 -2.454817 1.112766 0
M  V30 2 C 5.749578 -3.330395 1.097412 0
M  V30 3 O 6.005977 -4.498377 1.259871 0
M  V30 4 C 4.504511 -2.811842 0.898741 0
M  V30 5 C 3.431276 -3.624251 0.871703 0
M  V30 6 C 2.194009 -3.140177 0.677290 0
M  V30 7 C 1.973801 -1.824257 0.501137 0
M  V30 8 C 3.047988 -1.014023 0.529454 0
M  V30 9 C 4.287334 -1.494558 0.723682 0
M  V30 10 C 0.731219 -1.346510 0.305668 0
M  V30 11 N -0.338647 -2.016657 0.257761 0
M  V30 12 C -1.331871 -1.235592 0.109282 0
M  V30 13 C -0.833478 0.012740 -0.065884 0
M  V30 14 N 0.414155 -0.136535 0.125242 0
M  V30 15 C -1.294744 1.237647 -0.406887 0
M  V30 16 C -2.503468 1.481060 -0.952827 0
M  V30 17 C -2.882374 2.721577 -1.297550 0
M  V30 18 C -2.018022 3.724217 -1.101177 0
M  V30 19 C -0.824583 3.395658 -0.589852 0
M  V30 20 N -0.490693 2.216591 -0.276297 0
M  V30 21 C -2.579241 -1.756986 0.180795 0
M  V30 22 C -2.775978 -3.094533 0.081949 0
M  V30 23 C -3.987683 -3.672966 0.160671 0
M  V30 24 C -5.046462 -2.888287 0.381221 0
M  V30 25 O -6.223826 -3.214617 0.500862 0
M  V30 26 C -6.967330 -2.023675 0.765814 0
M  V30 27 O -5.952331 -1.017737 0.772473 0
M  V30 28 C -4.883055 -1.571922 0.531112 0
M  V30 29 C -3.670051 -1.010151 0.451988 0
M  V30 30 H 6.646690 -1.465356 0.983507 0
M  V30 31 H 7.710583 -2.836420 1.259261 0
M  V30 32 H 3.529037 -4.714743 1.007722 0
M  V30 33 H 1.359149 -3.861888 0.666182 0
M  V30 34 H 2.945096 0.075537 0.393575 0
M  V30 35 H 5.102294 -0.753469 0.730441 0
M  V30 36 H 1.106994 0.643820 0.079409 0
M  V30 37 H -3.206142 0.676706 -1.207873 0
M  V30 38 H -3.865989 2.911047 -1.757978 0
M  V30 39 H -2.266112 4.762860 -1.371188 0
M  V30 40 H -0.063754 4.178039 -0.427043 0
M  V30 41 H -1.938390 -3.788820 -0.103108 0
M  V30 42 H -4.111888 -4.762860 0.054668 0
M  V30 43 H -7.710583 -1.832070 -0.042682 0
M  V30 44 H -7.471717 -2.083628 1.757978 0
M  V30 45 H -3.608241 0.056800 0.705420 0
M  V30 END ATOM
M  V30 BEGIN BOND
M  V30 1 1 1 2
M  V30 2 1 1 30
M  V30 3 1 1 31
M  V30 4 2 2 3
M  V30 5 1 2 4
M  V30 6 1 4 5
M  V30 7 2 4 9
M  V30 8 2 5 6
M  V30 9 1 5 32
M  V30 10 1 6 7
M  V30 11 1 6 33
M  V30 12 2 7 8
M  V30 13 1 7 10
M  V30 14 1 8 9
M  V30 15 1 8 34
M  V30 16 1 9 35
M  V30 17 2 10 11
M  V30 18 1 14 10
M  V30 19 1 12 11
M  V30 20 2 12 13
M  V30 21 1 12 21
M  V30 22 1 13 14
M  V30 23 1 13 15
M  V30 24 1 14 36
M  V30 25 1 16 15
M  V30 26 2 15 20
M  V30 27 2 17 16
M  V30 28 1 16 37
M  V30 29 1 18 17
M  V30 30 1 17 38
M  V30 31 2 18 19
M  V30 32 1 18 39
M  V30 33 1 20 19
M  V30 34 1 19 40
M  V30 35 1 21 22
M  V30 36 2 21 29
M  V30 37 2 22 23
M  V30 38 1 22 41
M  V30 39 1 23 24
M  V30 40 1 23 42
M  V30 41 1 24 25
M  V30 42 2 24 28
M  V30 43 1 25 26
M  V30 44 1 26 27
M  V30 45 1 26 43
M  V30 46 1 26 44
M  V30 47 1 27 28
M  V30 48 1 28 29
M  V30 49 1 29 45
M  V30 END BOND
M  V30 END CTAB
M  END
