
  Chem3D Core 15.003181611493D

 42 44  0  0  0  0  0  0  0  0999 V2000
   -1.1632   -2.8135    1.4397 C   0  0  0  0  0  0  0  0  0  0  0  0
   -0.9463   -2.6486    2.7590 C   0  0  0  0  0  0  0  0  0  0  0  0
   -0.4034   -3.6231    3.5022 C   0  0  0  0  0  0  0  0  0  0  0  0
   -0.0948   -4.7902    2.9242 C   0  0  0  0  0  0  0  0  0  0  0  0
   -0.3162   -4.9547    1.6125 C   0  0  0  0  0  0  0  0  0  0  0  0
   -0.8326   -3.9779    0.8378 C   0  0  0  0  0  0  0  0  0  0  0  0
   -2.0300   -1.3335    0.6219 Br  0  0  0  0  0  0  0  0  0  0  0  0
   -0.9412   -4.3651   -0.4524 N   0  0  0  0  0  0  0  0  0  0  0  0
   -1.1153   -3.7533   -1.6554 C   0  0  0  0  0  0  0  0  0  0  0  0
   -1.4321   -4.4413   -2.5882 O   0  0  0  0  0  0  0  0  0  0  0  0
   -0.7792   -2.4386   -1.8134 N   0  0  0  0  0  0  0  0  0  0  0  0
   -0.6843   -1.7697   -3.1204 C   0  0  0  0  0  0  0  0  0  0  0  0
   -1.1424   -0.3037   -2.9801 C   0  0  0  0  0  0  0  0  0  0  0  0
    0.7956   -1.6307   -3.5183 C   0  0  0  0  0  0  0  0  0  0  0  0
    1.3285   -0.5251   -2.5871 C   0  0  0  0  0  0  0  0  0  0  0  0
    0.0879    0.2552   -2.3726 N   0  0  0  0  0  0  0  0  0  0  0  0
    0.0378    1.3307   -1.6894 C   0  0  0  0  0  0  0  0  0  0  0  0
    1.0821    2.9676   -0.3705 C   0  0  0  0  0  0  0  0  0  0  0  0
    1.1378    1.8392   -1.0947 C   0  0  0  0  0  0  0  0  0  0  0  0
   -1.1265    3.0234   -0.8613 C   0  0  0  0  0  0  0  0  0  0  0  0
   -1.0584    1.9572   -1.5386 N   0  0  0  0  0  0  0  0  0  0  0  0
   -0.0855    3.6185   -0.2568 C   0  0  0  0  0  0  0  0  0  0  0  0
   -0.2373    4.8587    0.5902 C   0  0  0  0  0  0  0  0  0  0  0  0
    0.6392    4.9042    1.5813 F   0  0  0  0  0  0  0  0  0  0  0  0
   -1.4478    4.9663    1.1149 F   0  0  0  0  0  0  0  0  0  0  0  0
   -0.0371    5.9306   -0.1612 F   0  0  0  0  0  0  0  0  0  0  0  0
   -1.2197   -1.7128    3.2773 H   0  0  0  0  0  0  0  0  0  0  0  0
   -0.2321   -3.4757    4.5816 H   0  0  0  0  0  0  0  0  0  0  0  0
    0.3388   -5.6073    3.5248 H   0  0  0  0  0  0  0  0  0  0  0  0
   -0.0413   -5.9306    1.1733 H   0  0  0  0  0  0  0  0  0  0  0  0
   -0.7676   -5.3561   -0.5460 H   0  0  0  0  0  0  0  0  0  0  0  0
   -0.4472   -1.9378   -0.9887 H   0  0  0  0  0  0  0  0  0  0  0  0
   -1.2913   -2.2903   -3.8956 H   0  0  0  0  0  0  0  0  0  0  0  0
   -1.3176    0.1644   -3.9767 H   0  0  0  0  0  0  0  0  0  0  0  0
   -2.0571   -0.2314   -2.3512 H   0  0  0  0  0  0  0  0  0  0  0  0
    0.8549   -1.2943   -4.5816 H   0  0  0  0  0  0  0  0  0  0  0  0
    1.3622   -2.5845   -3.4249 H   0  0  0  0  0  0  0  0  0  0  0  0
    1.6830   -0.9681   -1.6267 H   0  0  0  0  0  0  0  0  0  0  0  0
    2.1329    0.0599   -3.0888 H   0  0  0  0  0  0  0  0  0  0  0  0
    1.9910    3.3535    0.1189 H   0  0  0  0  0  0  0  0  0  0  0  0
    2.1239    1.3530   -1.1648 H   0  0  0  0  0  0  0  0  0  0  0  0
   -2.1329    3.4689   -0.7899 H   0  0  0  0  0  0  0  0  0  0  0  0
  1  2  1  0      
  1  6  2  0      
  1  7  1  0      
  2  3  2  0      
  2 27  1  0      
  3  4  1  0      
  3 28  1  0      
  4  5  2  0      
  4 29  1  0      
  5  6  1  0      
  5 30  1  0      
  6  8  1  0      
  8  9  1  0      
  8 31  1  0      
  9 10  2  0      
  9 11  1  0      
 12 11  1  0      
 11 32  1  0      
 13 12  1  0      
 12 14  1  0      
 12 33  1  0      
 16 13  1  0      
 13 34  1  0      
 13 35  1  0      
 14 15  1  0      
 14 36  1  0      
 14 37  1  0      
 16 15  1  0      
 15 38  1  0      
 15 39  1  0      
 16 17  1  0      
 19 17  1  0      
 17 21  2  0      
 18 19  2  0      
 22 18  1  0      
 18 40  1  0      
 19 41  1  0      
 21 20  1  0      
 22 20  2  0      
 20 42  1  0      
 22 23  1  0      
 23 24  1  0      
 23 25  1  0      
 23 26  1  0      
M  END
