
  Chem3D Core 15.003291610513D

 37 39  0  0  0  0  0  0  0  0999 V2000
   -1.2580    4.6660    2.6448 Cl  0  0  0  0  0  0  0  0  0  0  0  0
   -3.4118    4.2875    0.2969 Cl  0  0  0  0  0  0  0  0  0  0  0  0
    1.1905   -2.4415   -1.2582 N   0  0  0  0  0  0  0  0  0  0  0  0
    0.6159    0.0441    1.4467 C   0  0  0  0  0  0  0  0  0  0  0  0
   -0.0404   -1.3154    1.6158 C   0  0  0  0  0  0  0  0  0  0  0  0
    0.4416   -2.4278    1.0229 C   0  0  0  0  0  0  0  0  0  0  0  0
   -0.4038    1.1376    1.1769 C   0  0  0  0  0  0  0  0  0  0  0  0
    1.6633   -2.3973    0.1274 C   0  0  0  0  0  0  0  0  0  0  0  0
    1.7010    0.0890    0.3598 C   0  0  0  0  0  0  0  0  0  0  0  0
   -0.4189    2.2724    1.8985 C   0  0  0  0  0  0  0  0  0  0  0  0
    2.5510   -1.1812    0.4298 C   0  0  0  0  0  0  0  0  0  0  0  0
   -1.1188   -1.4230    2.4153 C   0  0  0  0  0  0  0  0  0  0  0  0
   -1.3081    0.9983    0.1919 C   0  0  0  0  0  0  0  0  0  0  0  0
   -1.3168    3.2433    1.6580 C   0  0  0  0  0  0  0  0  0  0  0  0
   -0.1882   -3.6021    1.2130 C   0  0  0  0  0  0  0  0  0  0  0  0
   -2.2218    3.0864    0.6722 C   0  0  0  0  0  0  0  0  0  0  0  0
   -2.2098    1.9593   -0.0583 C   0  0  0  0  0  0  0  0  0  0  0  0
   -1.7380   -2.5968    2.6062 C   0  0  0  0  0  0  0  0  0  0  0  0
   -1.2726   -3.6946    1.9957 C   0  0  0  0  0  0  0  0  0  0  0  0
    2.2128   -2.7278   -2.2613 C   0  0  0  0  0  0  0  0  0  0  0  0
    0.4517   -3.1870   -1.3114 H   0  0  0  0  0  0  0  0  0  0  0  0
    1.1214    0.2318    2.4274 H   0  0  0  0  0  0  0  0  0  0  0  0
    2.2648   -3.3188    0.3252 H   0  0  0  0  0  0  0  0  0  0  0  0
    1.2455    0.1607   -0.6551 H   0  0  0  0  0  0  0  0  0  0  0  0
    2.3352    0.9982    0.4893 H   0  0  0  0  0  0  0  0  0  0  0  0
    0.3247    2.4007    2.7026 H   0  0  0  0  0  0  0  0  0  0  0  0
    3.4118   -1.1177   -0.2738 H   0  0  0  0  0  0  0  0  0  0  0  0
    2.9893   -1.2767    1.4519 H   0  0  0  0  0  0  0  0  0  0  0  0
   -1.5134   -0.5325    2.9324 H   0  0  0  0  0  0  0  0  0  0  0  0
   -1.3151    0.0826   -0.4226 H   0  0  0  0  0  0  0  0  0  0  0  0
    0.1880   -4.5144    0.7204 H   0  0  0  0  0  0  0  0  0  0  0  0
   -2.9374    1.8062   -0.8735 H   0  0  0  0  0  0  0  0  0  0  0  0
   -2.6230   -2.6598    3.2611 H   0  0  0  0  0  0  0  0  0  0  0  0
   -1.7735   -4.6660    2.1422 H   0  0  0  0  0  0  0  0  0  0  0  0
    1.7302   -2.8173   -3.2611 H   0  0  0  0  0  0  0  0  0  0  0  0
    2.9675   -1.9134   -2.3258 H   0  0  0  0  0  0  0  0  0  0  0  0
    2.7244   -3.6922   -2.0430 H   0  0  0  0  0  0  0  0  0  0  0  0
  1 14  1  0      
  2 16  1  0      
  8  3  1  0      
  3 20  1  0      
  3 21  1  0      
  4  5  1  0      
  4  7  1  0      
  9  4  1  0      
  4 22  1  0      
  5  6  2  0      
  5 12  1  0      
  6  8  1  0      
 15  6  1  0      
  7 10  1  0      
  7 13  2  0      
  8 11  1  0      
  8 23  1  0      
  9 11  1  0      
  9 24  1  0      
  9 25  1  0      
 10 14  2  0      
 10 26  1  0      
 11 27  1  0      
 11 28  1  0      
 12 18  2  0      
 12 29  1  0      
 17 13  1  0      
 13 30  1  0      
 14 16  1  0      
 19 15  2  0      
 15 31  1  0      
 16 17  2  0      
 17 32  1  0      
 18 19  1  0      
 18 33  1  0      
 19 34  1  0      
 20 35  1  0      
 20 36  1  0      
 20 37  1  0      
M  END
