
  Chem3D Core 15.001121613303D

 58 62  0  0  0  0  0  0  0  0999 V2000
    6.7378    1.4860   -0.0512 C   0  0  0  0  0  0  0  0  0  0  0  0
    7.9365    1.7754   -0.5709 C   0  0  0  0  0  0  0  0  0  0  0  0
    8.2591    3.0612   -0.7615 C   0  0  0  0  0  0  0  0  0  0  0  0
    5.8696    2.4741    0.2134 C   0  0  0  0  0  0  0  0  0  0  0  0
    6.1269    3.7687   -0.0562 C   0  0  0  0  0  0  0  0  0  0  0  0
    7.3820    4.0456   -0.4856 C   0  0  0  0  0  0  0  0  0  0  0  0
    7.8064    5.2285   -0.6493 N   0  0  0  0  0  0  0  0  0  0  0  0
    7.0510    6.1908   -0.3434 C   0  0  0  0  0  0  0  0  0  0  0  0
    5.7930    6.0277    0.0842 C   0  0  0  0  0  0  0  0  0  0  0  0
    5.2661    4.7888    0.1740 C   0  0  0  0  0  0  0  0  0  0  0  0
    4.0291    4.8202    0.4899 N   0  0  0  0  0  0  0  0  0  0  0  0
    2.9806    4.0956    0.5267 C   0  0  0  0  0  0  0  0  0  0  0  0
    1.9060    4.6450    1.1248 C   0  0  0  0  0  0  0  0  0  0  0  0
    0.7368    3.9937    1.2322 C   0  0  0  0  0  0  0  0  0  0  0  0
    0.5642    2.7608    0.7176 C   0  0  0  0  0  0  0  0  0  0  0  0
    1.6181    2.2331    0.0655 C   0  0  0  0  0  0  0  0  0  0  0  0
    2.7853    2.8907   -0.0353 C   0  0  0  0  0  0  0  0  0  0  0  0
   -0.6397    2.1232    0.8413 C   0  0  0  0  0  0  0  0  0  0  0  0
   -0.7039    0.8709    0.3006 N   0  0  0  0  0  0  0  0  0  0  0  0
   -1.5871    2.6205    1.4018 O   0  0  0  0  0  0  0  0  0  0  0  0
   -1.6828   -0.0545    0.2107 C   0  0  0  0  0  0  0  0  0  0  0  0
   -1.3377   -1.1989   -0.4067 C   0  0  0  0  0  0  0  0  0  0  0  0
   -2.2116   -2.2044   -0.5661 C   0  0  0  0  0  0  0  0  0  0  0  0
   -3.4764   -2.1132   -0.1147 C   0  0  0  0  0  0  0  0  0  0  0  0
   -3.8217   -0.9686    0.5014 C   0  0  0  0  0  0  0  0  0  0  0  0
   -2.9456    0.0381    0.6604 C   0  0  0  0  0  0  0  0  0  0  0  0
   -4.2184   -3.1280   -0.3206 N   0  0  0  0  0  0  0  0  0  0  0  0
   -5.4271   -3.4340   -0.0619 C   0  0  0  0  0  0  0  0  0  0  0  0
   -6.2911   -2.7236    0.5330 N   0  0  0  0  0  0  0  0  0  0  0  0
   -7.4750   -3.1316    0.7402 C   0  0  0  0  0  0  0  0  0  0  0  0
   -7.8744   -4.2758    0.3664 N   0  0  0  0  0  0  0  0  0  0  0  0
   -7.0746   -5.0463   -0.2364 C   0  0  0  0  0  0  0  0  0  0  0  0
   -5.8145   -4.6550   -0.4739 C   0  0  0  0  0  0  0  0  0  0  0  0
   -8.2882   -2.3658    1.3438 N   0  0  0  0  0  0  0  0  0  0  0  0
   -7.6008   -6.3953   -0.6537 C   0  0  0  0  0  0  0  0  0  0  0  0
    6.4855    0.4402    0.1935 H   0  0  0  0  0  0  0  0  0  0  0  0
    8.6661    0.9751   -0.7780 H   0  0  0  0  0  0  0  0  0  0  0  0
    9.2732    3.2960   -1.1304 H   0  0  0  0  0  0  0  0  0  0  0  0
    4.9581    2.1676    0.7420 H   0  0  0  0  0  0  0  0  0  0  0  0
    7.4727    7.2029   -0.4675 H   0  0  0  0  0  0  0  0  0  0  0  0
    5.2095    6.9423    0.2910 H   0  0  0  0  0  0  0  0  0  0  0  0
    3.7651    5.7893    0.8070 H   0  0  0  0  0  0  0  0  0  0  0  0
    1.9641    5.6544    1.5712 H   0  0  0  0  0  0  0  0  0  0  0  0
   -0.0744    4.5215    1.7619 H   0  0  0  0  0  0  0  0  0  0  0  0
    1.5725    1.2586   -0.4458 H   0  0  0  0  0  0  0  0  0  0  0  0
    3.5523    2.4238   -0.6697 H   0  0  0  0  0  0  0  0  0  0  0  0
    0.1282    0.5062   -0.1334 H   0  0  0  0  0  0  0  0  0  0  0  0
   -0.3128   -1.3290   -0.7971 H   0  0  0  0  0  0  0  0  0  0  0  0
   -1.8590   -3.1151   -1.0821 H   0  0  0  0  0  0  0  0  0  0  0  0
   -4.8335   -0.8061    0.9007 H   0  0  0  0  0  0  0  0  0  0  0  0
   -3.3160    0.9363    1.1741 H   0  0  0  0  0  0  0  0  0  0  0  0
   -3.7083   -3.8973   -0.8256 H   0  0  0  0  0  0  0  0  0  0  0  0
   -5.1324   -5.3434   -0.9998 H   0  0  0  0  0  0  0  0  0  0  0  0
   -9.2732   -2.6781    1.5284 H   0  0  0  0  0  0  0  0  0  0  0  0
   -7.9808   -1.4141    1.6628 H   0  0  0  0  0  0  0  0  0  0  0  0
   -6.9026   -7.2029   -0.3362 H   0  0  0  0  0  0  0  0  0  0  0  0
   -8.5957   -6.6208   -0.2073 H   0  0  0  0  0  0  0  0  0  0  0  0
   -7.7050   -6.4362   -1.7619 H   0  0  0  0  0  0  0  0  0  0  0  0
  1  2  2  0      
  4  1  1  0      
  1 36  1  0      
  2  3  1  0      
  2 37  1  0      
  3  6  2  0      
  3 38  1  0      
  5  4  2  0      
  4 39  1  0      
  5  6  1  0      
 10  5  1  0      
  6  7  1  0      
  8  7  2  0      
  8  9  1  0      
  8 40  1  0      
  9 10  2  0      
  9 41  1  0      
 10 11  1  0      
 11 12  1  0      
 11 42  1  0      
 12 13  1  0      
 12 17  2  0      
 13 14  2  0      
 13 43  1  0      
 14 15  1  0      
 14 44  1  0      
 15 16  2  0      
 15 18  1  0      
 16 17  1  0      
 16 45  1  0      
 17 46  1  0      
 18 19  1  0      
 18 20  2  0      
 19 21  1  0      
 19 47  1  0      
 21 22  1  0      
 21 26  2  0      
 22 23  2  0      
 22 48  1  0      
 23 24  1  0      
 23 49  1  0      
 24 25  2  0      
 24 27  1  0      
 25 26  1  0      
 25 50  1  0      
 26 51  1  0      
 27 28  1  0      
 27 52  1  0      
 28 29  1  0      
 33 28  2  0      
 29 30  2  0      
 30 31  1  0      
 30 34  1  0      
 32 31  2  0      
 32 33  1  0      
 32 35  1  0      
 33 53  1  0      
 34 54  1  0      
 34 55  1  0      
 35 56  1  0      
 35 57  1  0      
 35 58  1  0      
M  END
