
  Chem3D Core 15.003291610483D

 68 70  0  0  0  0  0  0  0  0999 V2000
   -1.6543    1.2832   -0.4039 O   0  0  0  0  0  0  0  0  0  0  0  0
   -0.6734    1.1577   -2.4580 O   0  0  0  0  0  0  0  0  0  0  0  0
    0.0103   -3.1428    0.4850 O   0  0  0  0  0  0  0  0  0  0  0  0
   -0.0156   -4.7203   -1.1240 O   0  0  0  0  0  0  0  0  0  0  0  0
   -1.5580   -4.9554    2.6166 O   0  0  0  0  0  0  0  0  0  0  0  0
    0.5248    2.2090    0.3353 C   0  0  0  0  0  0  0  0  0  0  0  0
    1.0124    1.0481    1.2333 C   0  0  0  0  0  0  0  0  0  0  0  0
    1.1369    3.4742    0.9264 C   0  0  0  0  0  0  0  0  0  0  0  0
   -0.9479    2.4333   -0.0473 C   0  0  0  0  0  0  0  0  0  0  0  0
    2.5561    0.9726    1.0731 C   0  0  0  0  0  0  0  0  0  0  0  0
    0.3959    4.5590    1.2197 C   0  0  0  0  0  0  0  0  0  0  0  0
   -1.6827    3.1770    1.0621 C   0  0  0  0  0  0  0  0  0  0  0  0
    2.4494    3.4806    1.2245 C   0  0  0  0  0  0  0  0  0  0  0  0
   -1.1117    4.6035    1.1412 C   0  0  0  0  0  0  0  0  0  0  0  0
    0.3165   -0.3130    1.0628 C   0  0  0  0  0  0  0  0  0  0  0  0
    3.1667    2.3469    1.2418 C   0  0  0  0  0  0  0  0  0  0  0  0
   -1.4632    0.7401   -1.6402 C   0  0  0  0  0  0  0  0  0  0  0  0
   -2.3991   -0.4542   -1.8968 C   0  0  0  0  0  0  0  0  0  0  0  0
    0.8739   -1.4531    1.9347 C   0  0  0  0  0  0  0  0  0  0  0  0
    3.0689    0.3349   -0.2295 C   0  0  0  0  0  0  0  0  0  0  0  0
    0.0379   -2.7366    1.8221 C   0  0  0  0  0  0  0  0  0  0  0  0
   -1.7051    5.3495    2.3477 C   0  0  0  0  0  0  0  0  0  0  0  0
   -1.5528   -1.5798   -2.5414 C   0  0  0  0  0  0  0  0  0  0  0  0
    0.5371   -3.8020    2.7921 C   0  0  0  0  0  0  0  0  0  0  0  0
   -3.0902   -0.9602   -0.6141 C   0  0  0  0  0  0  0  0  0  0  0  0
   -3.4749    0.0589   -2.8754 C   0  0  0  0  0  0  0  0  0  0  0  0
    0.0450   -4.4328    0.0536 C   0  0  0  0  0  0  0  0  0  0  0  0
   -0.1642   -5.1196    2.5185 C   0  0  0  0  0  0  0  0  0  0  0  0
    0.1966   -5.5224    1.1014 C   0  0  0  0  0  0  0  0  0  0  0  0
   -2.2828   -2.9040   -2.8087 C   0  0  0  0  0  0  0  0  0  0  0  0
    1.0228    2.0624   -0.6546 H   0  0  0  0  0  0  0  0  0  0  0  0
   -1.9883   -5.8063    2.7245 H   0  0  0  0  0  0  0  0  0  0  0  0
    0.7910    1.3515    2.2904 H   0  0  0  0  0  0  0  0  0  0  0  0
   -0.9935    3.1233   -0.9287 H   0  0  0  0  0  0  0  0  0  0  0  0
    2.9462    0.3630    1.9272 H   0  0  0  0  0  0  0  0  0  0  0  0
    0.8741    5.4612    1.6384 H   0  0  0  0  0  0  0  0  0  0  0  0
   -2.7779    3.2246    0.8542 H   0  0  0  0  0  0  0  0  0  0  0  0
   -1.5458    2.6329    2.0255 H   0  0  0  0  0  0  0  0  0  0  0  0
    2.9564    4.4079    1.5426 H   0  0  0  0  0  0  0  0  0  0  0  0
   -1.3792    5.1765    0.2185 H   0  0  0  0  0  0  0  0  0  0  0  0
    0.3450   -0.6095   -0.0098 H   0  0  0  0  0  0  0  0  0  0  0  0
   -0.7490   -0.1964    1.3714 H   0  0  0  0  0  0  0  0  0  0  0  0
    4.2356    2.3890    1.5148 H   0  0  0  0  0  0  0  0  0  0  0  0
    0.8933   -1.1184    2.9994 H   0  0  0  0  0  0  0  0  0  0  0  0
    1.9224   -1.6922    1.6438 H   0  0  0  0  0  0  0  0  0  0  0  0
    2.8048    0.9300   -1.1306 H   0  0  0  0  0  0  0  0  0  0  0  0
    4.1799    0.2502   -0.2144 H   0  0  0  0  0  0  0  0  0  0  0  0
    2.6744   -0.6936   -0.3805 H   0  0  0  0  0  0  0  0  0  0  0  0
   -1.0148   -2.4810    2.1012 H   0  0  0  0  0  0  0  0  0  0  0  0
   -1.4274    4.8516    3.3047 H   0  0  0  0  0  0  0  0  0  0  0  0
   -2.8172    5.3814    2.2905 H   0  0  0  0  0  0  0  0  0  0  0  0
   -1.3460    6.4032    2.3945 H   0  0  0  0  0  0  0  0  0  0  0  0
   -1.1353   -1.2236   -3.5136 H   0  0  0  0  0  0  0  0  0  0  0  0
   -0.6784   -1.7956   -1.8820 H   0  0  0  0  0  0  0  0  0  0  0  0
    1.6392   -3.9356    2.6834 H   0  0  0  0  0  0  0  0  0  0  0  0
    0.3498   -3.4817    3.8444 H   0  0  0  0  0  0  0  0  0  0  0  0
   -3.8336   -1.7569   -0.8367 H   0  0  0  0  0  0  0  0  0  0  0  0
   -3.6622   -0.1594   -0.0944 H   0  0  0  0  0  0  0  0  0  0  0  0
   -2.3558   -1.3878    0.1035 H   0  0  0  0  0  0  0  0  0  0  0  0
   -4.0205    0.9305   -2.4468 H   0  0  0  0  0  0  0  0  0  0  0  0
   -3.0325    0.3834   -3.8444 H   0  0  0  0  0  0  0  0  0  0  0  0
   -4.2356   -0.7207   -3.1013 H   0  0  0  0  0  0  0  0  0  0  0  0
    0.1285   -5.9029    3.2549 H   0  0  0  0  0  0  0  0  0  0  0  0
   -0.4183   -6.4032    0.8002 H   0  0  0  0  0  0  0  0  0  0  0  0
    1.2636   -5.8485    1.0687 H   0  0  0  0  0  0  0  0  0  0  0  0
   -1.6159   -3.6188   -3.3439 H   0  0  0  0  0  0  0  0  0  0  0  0
   -2.5959   -3.4057   -1.8660 H   0  0  0  0  0  0  0  0  0  0  0  0
   -3.1831   -2.7609   -3.4464 H   0  0  0  0  0  0  0  0  0  0  0  0
  9  1  1  0      
  1 17  1  0      
  2 17  2  0      
 21  3  1  0      
 27  3  1  0      
  4 27  2  0      
 28  5  1  0      
  5 32  1  0      
  6  7  1  0      
  8  6  1  0      
  9  6  1  0      
  6 31  1  0      
  7 10  1  0      
  7 15  1  0      
  7 33  1  0      
  8 11  2  0      
 13  8  1  0      
 12  9  1  0      
  9 34  1  0      
 16 10  1  0      
 10 20  1  0      
 10 35  1  0      
 11 14  1  0      
 11 36  1  0      
 14 12  1  0      
 12 37  1  0      
 12 38  1  0      
 16 13  2  0      
 13 39  1  0      
 14 22  1  0      
 14 40  1  0      
 15 19  1  0      
 15 41  1  0      
 15 42  1  0      
 16 43  1  0      
 17 18  1  0      
 18 23  1  0      
 18 25  1  0      
 18 26  1  0      
 21 19  1  0      
 19 44  1  0      
 19 45  1  0      
 20 46  1  0      
 20 47  1  0      
 20 48  1  0      
 21 24  1  0      
 21 49  1  0      
 22 50  1  0      
 22 51  1  0      
 22 52  1  0      
 23 30  1  0      
 23 53  1  0      
 23 54  1  0      
 24 28  1  0      
 24 55  1  0      
 24 56  1  0      
 25 57  1  0      
 25 58  1  0      
 25 59  1  0      
 26 60  1  0      
 26 61  1  0      
 26 62  1  0      
 29 27  1  0      
 28 29  1  0      
 28 63  1  0      
 29 64  1  0      
 29 65  1  0      
 30 66  1  0      
 30 67  1  0      
 30 68  1  0      
M  END
