
  Chem3D Core 15.010021516423D

 43 45  0  0  0  0  0  0  0  0999 V2000
    0.6515   -1.8753    0.7093 O   0  0  0  0  0  0  0  0  0  0  0  0
    0.6778   -0.9688   -0.0870 C   0  0  0  0  0  0  0  0  0  0  0  0
    1.8439   -0.6125   -0.7351 N   0  0  0  0  0  0  0  0  0  0  0  0
    3.0888   -1.3500   -0.4912 C   0  0  0  0  0  0  0  0  0  0  0  0
    4.2829   -0.5334   -0.8807 C   0  0  0  0  0  0  0  0  0  0  0  0
    5.4782   -0.9476   -0.8230 N   0  0  0  0  0  0  0  0  0  0  0  0
    6.2252   -0.0097   -1.2165 N   0  0  0  0  0  0  0  0  0  0  0  0
    5.5056    0.9917   -1.5196 C   0  0  0  0  0  0  0  0  0  0  0  0
    6.0975    2.2863   -2.0305 C   0  0  0  0  0  0  0  0  0  0  0  0
    7.4076    2.3515   -1.8500 F   0  0  0  0  0  0  0  0  0  0  0  0
    5.8587    2.4189   -3.3258 F   0  0  0  0  0  0  0  0  0  0  0  0
    5.5564    3.3246   -1.4121 F   0  0  0  0  0  0  0  0  0  0  0  0
    4.3134    0.6486   -1.3037 N   0  0  0  0  0  0  0  0  0  0  0  0
    3.0886    1.4102   -1.5088 C   0  0  0  0  0  0  0  0  0  0  0  0
    1.9441    0.4138   -1.7813 C   0  0  0  0  0  0  0  0  0  0  0  0
   -0.5720   -0.1569   -0.4186 C   0  0  0  0  0  0  0  0  0  0  0  0
   -1.8629   -0.5547    0.3238 C   0  0  0  0  0  0  0  0  0  0  0  0
   -1.6373   -0.5176    1.7797 N   0  0  0  0  0  0  0  0  0  0  0  0
   -2.4177   -1.9292   -0.0883 C   0  0  0  0  0  0  0  0  0  0  0  0
   -3.7749   -2.1775    0.5399 C   0  0  0  0  0  0  0  0  0  0  0  0
   -4.8989   -1.8795   -0.1367 C   0  0  0  0  0  0  0  0  0  0  0  0
   -6.1155   -2.0878    0.3907 C   0  0  0  0  0  0  0  0  0  0  0  0
   -7.1986   -1.7806   -0.3081 F   0  0  0  0  0  0  0  0  0  0  0  0
   -6.2203   -2.6063    1.6277 C   0  0  0  0  0  0  0  0  0  0  0  0
   -7.4076   -2.8215    2.1753 F   0  0  0  0  0  0  0  0  0  0  0  0
   -5.1034   -2.9035    2.3100 C   0  0  0  0  0  0  0  0  0  0  0  0
   -3.8890   -2.6947    1.7769 C   0  0  0  0  0  0  0  0  0  0  0  0
   -2.8114   -2.9941    2.4856 F   0  0  0  0  0  0  0  0  0  0  0  0
    3.2029   -1.5840    0.5930 H   0  0  0  0  0  0  0  0  0  0  0  0
    3.0769   -2.3015   -1.0713 H   0  0  0  0  0  0  0  0  0  0  0  0
    3.1968    2.1124   -2.3683 H   0  0  0  0  0  0  0  0  0  0  0  0
    2.8678    2.0069   -0.5924 H   0  0  0  0  0  0  0  0  0  0  0  0
    2.1159   -0.1006   -2.7570 H   0  0  0  0  0  0  0  0  0  0  0  0
    1.0170    1.0112   -1.9134 H   0  0  0  0  0  0  0  0  0  0  0  0
   -0.3598    0.9081   -0.1567 H   0  0  0  0  0  0  0  0  0  0  0  0
   -0.7767   -0.2368   -1.5125 H   0  0  0  0  0  0  0  0  0  0  0  0
   -2.6472    0.2090    0.0882 H   0  0  0  0  0  0  0  0  0  0  0  0
   -2.4566   -0.9074    2.2782 H   0  0  0  0  0  0  0  0  0  0  0  0
   -0.8606   -1.1492    2.0399 H   0  0  0  0  0  0  0  0  0  0  0  0
   -2.5017   -1.9795   -1.1989 H   0  0  0  0  0  0  0  0  0  0  0  0
   -1.7203   -2.7496    0.1919 H   0  0  0  0  0  0  0  0  0  0  0  0
   -4.8286   -1.4502   -1.1499 H   0  0  0  0  0  0  0  0  0  0  0  0
   -5.1851   -3.3246    3.3258 H   0  0  0  0  0  0  0  0  0  0  0  0
  1  2  2  0      
  2  3  1  0      
  2 16  1  0      
  3  4  1  0      
 15  3  1  0      
  4  5  1  0      
  4 29  1  0      
  4 30  1  0      
  5  6  2  0      
  5 13  1  0      
  6  7  1  0      
  7  8  2  0      
  8  9  1  0      
 13  8  1  0      
  9 10  1  0      
  9 11  1  0      
  9 12  1  0      
 14 13  1  0      
 14 15  1  0      
 14 31  1  0      
 14 32  1  0      
 15 33  1  0      
 15 34  1  0      
 16 17  1  0      
 16 35  1  0      
 16 36  1  0      
 17 18  1  0      
 17 19  1  0      
 17 37  1  0      
 18 38  1  0      
 18 39  1  0      
 19 20  1  0      
 19 40  1  0      
 19 41  1  0      
 20 21  1  0      
 20 27  2  0      
 21 22  2  0      
 21 42  1  0      
 22 23  1  0      
 22 24  1  0      
 24 25  1  0      
 24 26  2  0      
 26 27  1  0      
 26 43  1  0      
 27 28  1  0      
M  END
