
  Chem3D Core 15.010051517383D

 73 76  0  0  0  0  0  0  0  0999 V2000
    0.3698   -0.0644   -0.0221 C   0  0  0  0  0  0  0  0  0  0  0  0
    1.5378    0.6094   -0.2466 C   0  0  0  0  0  0  0  0  0  0  0  0
   -0.8295    0.5592   -0.0761 C   0  0  0  0  0  0  0  0  0  0  0  0
   -0.7996    2.0797   -0.1026 C   0  0  0  0  0  0  0  0  0  0  0  0
   -2.2391    2.5710   -0.3189 C   0  0  0  0  0  0  0  0  0  0  0  0
   -2.8374    1.8291   -1.3295 O   0  0  0  0  0  0  0  0  0  0  0  0
   -2.9396    0.5005   -0.9994 C   0  0  0  0  0  0  0  0  0  0  0  0
   -1.9716   -0.1489   -0.2690 C   0  0  0  0  0  0  0  0  0  0  0  0
   -3.8507    4.3808    0.1044 O   0  0  0  0  0  0  0  0  0  0  0  0
   -4.9505    3.9226   -0.6520 C   0  0  0  0  0  0  0  0  0  0  0  0
    0.3644    2.5073   -0.9826 C   0  0  0  0  0  0  0  0  0  0  0  0
    1.5303    1.8421   -0.8302 C   0  0  0  0  0  0  0  0  0  0  0  0
    1.5628    4.3029   -2.4209 C   0  0  0  0  0  0  0  0  0  0  0  0
    0.2476    3.7673   -1.8344 C   0  0  0  0  0  0  0  0  0  0  0  0
    2.7186    3.9654   -1.4810 C   0  0  0  0  0  0  0  0  0  0  0  0
    2.7991    2.4294   -1.4196 C   0  0  0  0  0  0  0  0  0  0  0  0
    4.2088    2.1888   -0.8496 C   0  0  0  0  0  0  0  0  0  0  0  0
    5.0783    3.2410   -1.5661 C   0  0  0  0  0  0  0  0  0  0  0  0
    4.1028    4.3185   -2.0033 C   0  0  0  0  0  0  0  0  0  0  0  0
    4.3829    5.2976   -2.6524 O   0  0  0  0  0  0  0  0  0  0  0  0
    2.5773    4.6822   -0.1243 C   0  0  0  0  0  0  0  0  0  0  0  0
    2.8331    2.0152   -2.4611 H   0  0  0  0  0  0  0  0  0  0  0  0
   -0.4087    2.5270    1.3402 C   0  0  0  0  0  0  0  0  0  0  0  0
    2.5673   -0.0217   -0.1243 O   0  0  0  0  0  0  0  0  0  0  0  0
   -2.2221   -1.4243    0.1100 C   0  0  0  0  0  0  0  0  0  0  0  0
    0.5358   -1.4200   -0.1068 O   0  0  0  0  0  0  0  0  0  0  0  0
   -1.7654   -2.1655    1.0452 N   0  0  0  0  0  0  0  0  0  0  0  0
   -3.9340   -0.0683   -1.4172 O   0  0  0  0  0  0  0  0  0  0  0  0
   -0.6466    3.4811   -2.8869 O   0  0  0  0  0  0  0  0  0  0  0  0
   -0.9822   -1.6201    2.1873 C   0  0  0  0  0  0  0  0  0  0  0  0
   -2.2280   -3.5813    1.0655 C   0  0  0  0  0  0  0  0  0  0  0  0
   -1.8128   -1.7156    3.4449 C   0  0  0  0  0  0  0  0  0  0  0  0
   -1.4945   -4.3665    0.0074 C   0  0  0  0  0  0  0  0  0  0  0  0
   -2.5907    4.0530   -0.4438 C   0  0  0  0  0  0  0  0  0  0  0  0
   -1.1436    4.5021   -3.6409 C   0  0  0  0  0  0  0  0  0  0  0  0
   -2.0107    3.9413   -4.7504 C   0  0  0  0  0  0  0  0  0  0  0  0
   -0.9396    5.6792   -3.4498 O   0  0  0  0  0  0  0  0  0  0  0  0
   -1.4574   -2.4215    4.5277 C   0  0  0  0  0  0  0  0  0  0  0  0
   -0.5139   -5.2408    0.2735 C   0  0  0  0  0  0  0  0  0  0  0  0
   -2.7854    2.2756    0.6174 H   0  0  0  0  0  0  0  0  0  0  0  0
   -5.8653    4.4170   -0.2552 H   0  0  0  0  0  0  0  0  0  0  0  0
   -4.8373    4.1947   -1.7243 H   0  0  0  0  0  0  0  0  0  0  0  0
   -5.0801    2.8262   -0.5267 H   0  0  0  0  0  0  0  0  0  0  0  0
    1.5188    5.4032   -2.5904 H   0  0  0  0  0  0  0  0  0  0  0  0
    1.7613    3.8415   -3.4169 H   0  0  0  0  0  0  0  0  0  0  0  0
   -0.1641    4.5670   -1.1811 H   0  0  0  0  0  0  0  0  0  0  0  0
    4.6165    1.1726   -1.0538 H   0  0  0  0  0  0  0  0  0  0  0  0
    4.2110    2.3533    0.2527 H   0  0  0  0  0  0  0  0  0  0  0  0
    5.8653    3.6623   -0.9008 H   0  0  0  0  0  0  0  0  0  0  0  0
    5.5523    2.8168   -2.4821 H   0  0  0  0  0  0  0  0  0  0  0  0
    2.4804    5.7820   -0.2710 H   0  0  0  0  0  0  0  0  0  0  0  0
    1.6868    4.3478    0.4473 H   0  0  0  0  0  0  0  0  0  0  0  0
    3.4553    4.5227    0.5395 H   0  0  0  0  0  0  0  0  0  0  0  0
   -1.1285    2.1613    2.1072 H   0  0  0  0  0  0  0  0  0  0  0  0
    0.5859    2.1544    1.6708 H   0  0  0  0  0  0  0  0  0  0  0  0
   -0.3670    3.6345    1.4316 H   0  0  0  0  0  0  0  0  0  0  0  0
   -3.0009   -1.9734   -0.4428 H   0  0  0  0  0  0  0  0  0  0  0  0
    1.4136   -1.6467   -0.4536 H   0  0  0  0  0  0  0  0  0  0  0  0
   -0.0393   -2.2002    2.3118 H   0  0  0  0  0  0  0  0  0  0  0  0
   -0.7341   -0.5407    2.1093 H   0  0  0  0  0  0  0  0  0  0  0  0
   -2.0152   -4.0240    2.0653 H   0  0  0  0  0  0  0  0  0  0  0  0
   -3.3301   -3.6777    0.9332 H   0  0  0  0  0  0  0  0  0  0  0  0
   -2.7690   -1.1640    3.4547 H   0  0  0  0  0  0  0  0  0  0  0  0
   -1.7794   -4.1871   -1.0434 H   0  0  0  0  0  0  0  0  0  0  0  0
   -1.8677    4.6577    0.1488 H   0  0  0  0  0  0  0  0  0  0  0  0
   -2.5564    4.4205   -1.4893 H   0  0  0  0  0  0  0  0  0  0  0  0
   -2.8526    3.3522   -4.3203 H   0  0  0  0  0  0  0  0  0  0  0  0
   -2.4423    4.7617   -5.3668 H   0  0  0  0  0  0  0  0  0  0  0  0
   -1.4088    3.2846   -5.4187 H   0  0  0  0  0  0  0  0  0  0  0  0
   -2.1032   -2.4570    5.4187 H   0  0  0  0  0  0  0  0  0  0  0  0
   -0.5141   -2.9870    4.5596 H   0  0  0  0  0  0  0  0  0  0  0  0
   -0.0007   -5.7820   -0.5364 H   0  0  0  0  0  0  0  0  0  0  0  0
   -0.1890   -5.4412    1.3055 H   0  0  0  0  0  0  0  0  0  0  0  0
  1  2  1  0      
  1  3  2  0      
  1 26  1  0      
  2 12  1  0      
  2 24  2  0      
  3  4  1  0      
  3  8  1  0      
  4  5  1  0      
  4 11  1  0      
  4 23  1  0      
  5  6  1  0      
  5 34  1  0      
  5 40  1  0      
  6  7  1  0      
  7  8  1  0      
  7 28  2  0      
  8 25  2  0      
  9 10  1  0      
  9 34  1  0      
 10 41  1  0      
 10 42  1  0      
 10 43  1  0      
 11 12  2  0      
 11 14  1  0      
 12 16  1  0      
 13 14  1  0      
 13 15  1  0      
 13 44  1  0      
 13 45  1  0      
 14 29  1  0      
 14 46  1  0      
 15 16  1  0      
 15 19  1  0      
 15 21  1  0      
 16 17  1  0      
 16 22  1  0      
 17 18  1  0      
 17 47  1  0      
 17 48  1  0      
 18 19  1  0      
 18 49  1  0      
 18 50  1  0      
 19 20  2  0      
 21 51  1  0      
 21 52  1  0      
 21 53  1  0      
 23 54  1  0      
 23 55  1  0      
 23 56  1  0      
 25 27  1  0      
 25 57  1  0      
 26 58  1  0      
 27 30  1  0      
 27 31  1  0      
 29 35  1  0      
 30 32  1  0      
 30 59  1  0      
 30 60  1  0      
 31 33  1  0      
 31 61  1  0      
 31 62  1  0      
 32 38  2  0      
 32 63  1  0      
 33 39  2  0      
 33 64  1  0      
 34 65  1  0      
 34 66  1  0      
 35 36  1  0      
 35 37  2  0      
 36 67  1  0      
 36 68  1  0      
 36 69  1  0      
 38 70  1  0      
 38 71  1  0      
 39 72  1  0      
 39 73  1  0      
M  END
