
  Chem3D Core 15.001121613053D

 48 47  0  0  0  0  0  0  0  0999 V2000
    2.3507   -2.4227   -2.9285 S   0  0  0  0  0  0  0  0  0  0  0  0
    2.4379   -0.8451   -2.4164 O   0  0  0  0  0  0  0  0  0  0  0  0
    3.8239   -2.9342   -3.5284 O   0  5  0  0  0  0  0  0  0  0  0  0
    2.3687   -3.4646   -1.8949 O   0  0  0  0  0  0  0  0  0  0  0  0
    1.6991   -2.6639   -4.2205 O   0  0  0  0  0  0  0  0  0  0  0  0
    1.2565   -0.0889   -2.4033 C   0  0  0  0  0  0  0  0  0  0  0  0
    0.4166   -0.4371   -1.1609 C   0  0  0  0  0  0  0  0  0  0  0  0
    1.6610    1.3974   -2.4324 C   0  0  0  0  0  0  0  0  0  0  0  0
   -0.7024   -1.4594   -1.4258 C   0  0  0  0  0  0  0  0  0  0  0  0
   -1.5523   -1.8108   -0.1828 C   0  0  0  0  0  0  0  0  0  0  0  0
    0.6733    2.3443   -3.1496 C   0  0  0  0  0  0  0  0  0  0  0  0
   -2.2937   -0.5764    0.3800 C   0  0  0  0  0  0  0  0  0  0  0  0
   -2.5338   -2.9524   -0.5328 C   0  0  0  0  0  0  0  0  0  0  0  0
   -0.7302    2.3764   -2.5241 C   0  0  0  0  0  0  0  0  0  0  0  0
    1.2494    3.7725   -3.1884 C   0  0  0  0  0  0  0  0  0  0  0  0
   -1.6373    0.0030    1.6451 C   0  0  0  0  0  0  0  0  0  0  0  0
   -3.1550   -3.6260    0.7005 C   0  0  0  0  0  0  0  0  0  0  0  0
   -2.3303    1.2927    2.1130 C   0  0  0  0  0  0  0  0  0  0  0  0
   -1.6775    1.8637    3.3788 C   0  0  0  0  0  0  0  0  0  0  0  0
    0.6856   -0.2899   -3.3401 H   0  0  0  0  0  0  0  0  0  0  0  0
    1.0748   -0.8004   -0.3376 H   0  0  0  0  0  0  0  0  0  0  0  0
   -0.0524    0.4909   -0.7695 H   0  0  0  0  0  0  0  0  0  0  0  0
    1.8632    1.7581   -1.3975 H   0  0  0  0  0  0  0  0  0  0  0  0
    2.6323    1.4907   -2.9774 H   0  0  0  0  0  0  0  0  0  0  0  0
   -1.3754   -1.0804   -2.2305 H   0  0  0  0  0  0  0  0  0  0  0  0
   -0.2413   -2.3953   -1.8156 H   0  0  0  0  0  0  0  0  0  0  0  0
   -0.8558   -2.2113    0.5949 H   0  0  0  0  0  0  0  0  0  0  0  0
    0.5660    1.9967   -4.2092 H   0  0  0  0  0  0  0  0  0  0  0  0
   -2.3790    0.2089   -0.4055 H   0  0  0  0  0  0  0  0  0  0  0  0
   -3.3468   -0.8320    0.6369 H   0  0  0  0  0  0  0  0  0  0  0  0
   -3.3362   -2.5642   -1.2035 H   0  0  0  0  0  0  0  0  0  0  0  0
   -1.9953   -3.7472   -1.1037 H   0  0  0  0  0  0  0  0  0  0  0  0
   -1.3868    3.1070   -3.0490 H   0  0  0  0  0  0  0  0  0  0  0  0
   -1.2382    1.3897   -2.6013 H   0  0  0  0  0  0  0  0  0  0  0  0
   -0.6885    2.6749   -1.4521 H   0  0  0  0  0  0  0  0  0  0  0  0
    0.5815    4.4647   -3.7502 H   0  0  0  0  0  0  0  0  0  0  0  0
    2.2438    3.7985   -3.6896 H   0  0  0  0  0  0  0  0  0  0  0  0
    1.3749    4.1813   -2.1600 H   0  0  0  0  0  0  0  0  0  0  0  0
   -1.6810   -0.7576    2.4610 H   0  0  0  0  0  0  0  0  0  0  0  0
   -0.5604    0.2194    1.4587 H   0  0  0  0  0  0  0  0  0  0  0  0
   -3.8239   -4.4647    0.3984 H   0  0  0  0  0  0  0  0  0  0  0  0
   -2.3678   -4.0484    1.3660 H   0  0  0  0  0  0  0  0  0  0  0  0
   -3.7672   -2.9221    1.3062 H   0  0  0  0  0  0  0  0  0  0  0  0
   -2.2832    2.0568    1.3003 H   0  0  0  0  0  0  0  0  0  0  0  0
   -3.4084    1.0866    2.3158 H   0  0  0  0  0  0  0  0  0  0  0  0
   -2.1898    2.7975    3.7062 H   0  0  0  0  0  0  0  0  0  0  0  0
   -1.7290    1.1358    4.2205 H   0  0  0  0  0  0  0  0  0  0  0  0
   -0.6054    2.1097    3.2019 H   0  0  0  0  0  0  0  0  0  0  0  0
  1  2  1  0      
  1  3  1  0      
  1  4  2  0      
  1  5  2  0      
  2  6  1  0      
  6  7  1  0      
  6  8  1  0      
  6 20  1  0      
  7  9  1  0      
  7 21  1  0      
  7 22  1  0      
  8 11  1  0      
  8 23  1  0      
  8 24  1  0      
  9 10  1  0      
  9 25  1  0      
  9 26  1  0      
 10 12  1  0      
 10 13  1  0      
 10 27  1  0      
 11 14  1  0      
 11 15  1  0      
 11 28  1  0      
 12 16  1  0      
 12 29  1  0      
 12 30  1  0      
 13 17  1  0      
 13 31  1  0      
 13 32  1  0      
 14 33  1  0      
 14 34  1  0      
 14 35  1  0      
 15 36  1  0      
 15 37  1  0      
 15 38  1  0      
 16 18  1  0      
 16 39  1  0      
 16 40  1  0      
 17 41  1  0      
 17 42  1  0      
 17 43  1  0      
 18 19  1  0      
 18 44  1  0      
 18 45  1  0      
 19 46  1  0      
 19 47  1  0      
 19 48  1  0      
M  CHG  1   3  -1
M  END
