
  Chem3D Core 15.003291611163D

 61 65  0  0  0  0  0  0  0  0999 V2000
    0.2167   -2.1260   -1.6394 S   0  0  0  0  0  0  0  0  0  0  0  0
    3.8910    3.4619   -0.5805 O   0  0  0  0  0  0  0  0  0  0  0  0
    4.0581    5.6828   -1.0845 O   0  0  0  0  0  0  0  0  0  0  0  0
   -4.8234   -2.9320    1.1041 O   0  0  0  0  0  0  0  0  0  0  0  0
   -0.0429   -4.1026   -3.3869 O   0  0  0  0  0  0  0  0  0  0  0  0
    0.9194   -0.3495    0.4027 C   0  0  0  0  0  0  0  0  0  0  0  0
    1.9306    0.4129   -0.4700 C   0  0  0  0  0  0  0  0  0  0  0  0
    2.1101    1.8931   -0.0710 C   0  0  0  0  0  0  0  0  0  0  0  0
   -0.4599    0.3554    0.3793 C   0  0  0  0  0  0  0  0  0  0  0  0
    3.2347    2.3257   -1.0509 C   0  0  0  0  0  0  0  0  0  0  0  0
   -1.5415   -0.3521    1.2558 C   0  0  0  0  0  0  0  0  0  0  0  0
    0.8211   -1.8512    0.0580 C   0  0  0  0  0  0  0  0  0  0  0  0
    3.3681   -0.1107   -0.5462 C   0  0  0  0  0  0  0  0  0  0  0  0
    0.7337    2.5672   -0.2185 C   0  0  0  0  0  0  0  0  0  0  0  0
   -0.3352    1.8735    0.6470 C   0  0  0  0  0  0  0  0  0  0  0  0
   -1.4965   -1.8624    1.0663 C   0  0  0  0  0  0  0  0  0  0  0  0
    4.1825    1.1045   -1.0370 C   0  0  0  0  0  0  0  0  0  0  0  0
   -0.1324   -2.5139    1.0586 C   0  0  0  0  0  0  0  0  0  0  0  0
    2.7939    2.6930   -2.4718 C   0  0  0  0  0  0  0  0  0  0  0  0
    2.6065    2.0792    1.3878 C   0  0  0  0  0  0  0  0  0  0  0  0
   -2.9373    0.1417    0.8077 C   0  0  0  0  0  0  0  0  0  0  0  0
   -1.3462   -0.0783    2.7624 C   0  0  0  0  0  0  0  0  0  0  0  0
    3.6151    4.5779   -1.3038 C   0  0  0  0  0  0  0  0  0  0  0  0
   -2.5964   -2.6350    1.0248 C   0  0  0  0  0  0  0  0  0  0  0  0
    2.6568    4.2125   -2.4132 C   0  0  0  0  0  0  0  0  0  0  0  0
   -4.0820   -0.6987    1.3744 C   0  0  0  0  0  0  0  0  0  0  0  0
   -3.8712   -2.1831    1.1468 C   0  0  0  0  0  0  0  0  0  0  0  0
    0.3980   -3.8059   -2.2999 C   0  0  0  0  0  0  0  0  0  0  0  0
    1.1265   -4.8026   -1.4194 C   0  0  0  0  0  0  0  0  0  0  0  0
    1.3037   -0.3087    1.4490 H   0  0  0  0  0  0  0  0  0  0  0  0
    1.5356    0.3871   -1.5153 H   0  0  0  0  0  0  0  0  0  0  0  0
   -0.8039    0.2808   -0.6827 H   0  0  0  0  0  0  0  0  0  0  0  0
    1.8322   -2.3121    0.1693 H   0  0  0  0  0  0  0  0  0  0  0  0
    3.4623   -0.9845   -1.2313 H   0  0  0  0  0  0  0  0  0  0  0  0
    3.7069   -0.4372    0.4641 H   0  0  0  0  0  0  0  0  0  0  0  0
    0.8113    3.6453    0.0561 H   0  0  0  0  0  0  0  0  0  0  0  0
    0.3773    2.5278   -1.2728 H   0  0  0  0  0  0  0  0  0  0  0  0
   -1.3096    2.3796    0.4525 H   0  0  0  0  0  0  0  0  0  0  0  0
   -0.1092    2.0610    1.7188 H   0  0  0  0  0  0  0  0  0  0  0  0
    4.6252    0.9003   -2.0373 H   0  0  0  0  0  0  0  0  0  0  0  0
    5.0451    1.2722   -0.3504 H   0  0  0  0  0  0  0  0  0  0  0  0
    0.2899   -2.4275    2.0872 H   0  0  0  0  0  0  0  0  0  0  0  0
   -0.1972   -3.6073    0.8664 H   0  0  0  0  0  0  0  0  0  0  0  0
    3.6090    2.4661   -3.1994 H   0  0  0  0  0  0  0  0  0  0  0  0
    1.8848    2.1786   -2.8444 H   0  0  0  0  0  0  0  0  0  0  0  0
    1.9766    1.5805    2.1515 H   0  0  0  0  0  0  0  0  0  0  0  0
    3.6363    1.6942    1.5481 H   0  0  0  0  0  0  0  0  0  0  0  0
    2.6162    3.1556    1.6721 H   0  0  0  0  0  0  0  0  0  0  0  0
   -3.0966    1.2081    1.0893 H   0  0  0  0  0  0  0  0  0  0  0  0
   -3.0143    0.0882   -0.3053 H   0  0  0  0  0  0  0  0  0  0  0  0
   -0.3073   -0.2923    3.0958 H   0  0  0  0  0  0  0  0  0  0  0  0
   -1.5723    0.9766    3.0314 H   0  0  0  0  0  0  0  0  0  0  0  0
   -2.0162   -0.7101    3.3869 H   0  0  0  0  0  0  0  0  0  0  0  0
   -2.4690   -3.7247    0.9061 H   0  0  0  0  0  0  0  0  0  0  0  0
    1.6321    4.5335   -2.1189 H   0  0  0  0  0  0  0  0  0  0  0  0
    2.9339    4.7103   -3.3702 H   0  0  0  0  0  0  0  0  0  0  0  0
   -5.0451   -0.3838    0.9064 H   0  0  0  0  0  0  0  0  0  0  0  0
   -4.1862   -0.5322    2.4717 H   0  0  0  0  0  0  0  0  0  0  0  0
    2.0384   -4.3630   -0.9589 H   0  0  0  0  0  0  0  0  0  0  0  0
    0.4462   -5.1794   -0.6235 H   0  0  0  0  0  0  0  0  0  0  0  0
    1.4540   -5.6828   -2.0180 H   0  0  0  0  0  0  0  0  0  0  0  0
 12  1  1  0      
  1 28  1  0      
 10  2  1  0      
  2 23  1  0      
  3 23  2  0      
  4 27  2  0      
  5 28  2  0      
  6  7  1  0      
  6  9  1  0      
  6 12  1  0      
  6 30  1  0      
  7  8  1  0      
  7 13  1  0      
  7 31  1  0      
  8 10  1  0      
  8 14  1  0      
  8 20  1  0      
  9 11  1  0      
  9 15  1  0      
  9 32  1  0      
 10 17  1  0      
 10 19  1  0      
 11 16  1  0      
 11 21  1  0      
 11 22  1  0      
 12 18  1  0      
 12 33  1  0      
 13 17  1  0      
 13 34  1  0      
 13 35  1  0      
 14 15  1  0      
 14 36  1  0      
 14 37  1  0      
 15 38  1  0      
 15 39  1  0      
 16 18  1  0      
 16 24  2  0      
 17 40  1  0      
 17 41  1  0      
 18 42  1  0      
 18 43  1  0      
 19 25  1  0      
 19 44  1  0      
 19 45  1  0      
 20 46  1  0      
 20 47  1  0      
 20 48  1  0      
 21 26  1  0      
 21 49  1  0      
 21 50  1  0      
 22 51  1  0      
 22 52  1  0      
 22 53  1  0      
 23 25  1  0      
 24 27  1  0      
 24 54  1  0      
 25 55  1  0      
 25 56  1  0      
 26 27  1  0      
 26 57  1  0      
 26 58  1  0      
 28 29  1  0      
 29 59  1  0      
 29 60  1  0      
 29 61  1  0      
M  END
