
  Chem3D Core 15.003241614373D

 61 68  0  0  0  0  0  0  0  0999 V2000
    0.1474    3.5249   -0.3646 C   0  0  0  0  0  0  0  0  0  0  0  0
   -2.0998    2.7529   -0.3498 C   0  0  0  0  0  0  0  0  0  0  0  0
   -1.2595    3.8008   -0.5602 N   0  0  0  0  0  0  0  0  0  0  0  0
   -3.2826    2.9037   -0.4882 O   0  0  0  0  0  0  0  0  0  0  0  0
   -1.2985    1.7054   -0.0010 C   0  0  0  0  0  0  0  0  0  0  0  0
   -0.0032    2.0855    0.0153 C   0  0  0  0  0  0  0  0  0  0  0  0
   -1.6101    0.4259    0.2907 C   0  0  0  0  0  0  0  0  0  0  0  0
   -0.6069   -0.4235    0.6261 C   0  0  0  0  0  0  0  0  0  0  0  0
   -2.4106   -1.5570    0.6806 C   0  0  0  0  0  0  0  0  0  0  0  0
   -2.7479   -0.3020    0.3316 C   0  0  0  0  0  0  0  0  0  0  0  0
   -3.3124   -2.5436    0.7966 C   0  0  0  0  0  0  0  0  0  0  0  0
   -4.6040   -2.2685    0.5633 C   0  0  0  0  0  0  0  0  0  0  0  0
   -4.9646   -1.0244    0.2159 C   0  0  0  0  0  0  0  0  0  0  0  0
   -4.0461   -0.0506    0.0978 C   0  0  0  0  0  0  0  0  0  0  0  0
   -1.1529   -1.5463    0.8372 N   0  0  0  0  0  0  0  0  0  0  0  0
    0.6815   -0.0479    0.6640 C   0  0  0  0  0  0  0  0  0  0  0  0
    0.9686    1.2226    0.3335 C   0  0  0  0  0  0  0  0  0  0  0  0
    2.7977    0.1637    0.7579 C   0  0  0  0  0  0  0  0  0  0  0  0
    2.2999    1.3585    0.3901 C   0  0  0  0  0  0  0  0  0  0  0  0
    4.1321    0.0416    0.8547 C   0  0  0  0  0  0  0  0  0  0  0  0
    3.0865    2.4155    0.1422 C   0  0  0  0  0  0  0  0  0  0  0  0
    4.4157    2.2776    0.2563 C   0  0  0  0  0  0  0  0  0  0  0  0
    4.9330    1.0913    0.6075 C   0  0  0  0  0  0  0  0  0  0  0  0
    1.7961   -0.6117    0.9218 N   0  0  0  0  0  0  0  0  0  0  0  0
   -0.0907   -3.6969    0.0689 C   0  0  0  0  0  0  0  0  0  0  0  0
   -0.3996   -2.7440    1.2221 C   0  0  0  0  0  0  0  0  0  0  0  0
    1.8935   -2.0391    1.3642 C   0  0  0  0  0  0  0  0  0  0  0  0
    2.2525   -3.0139    0.2229 C   0  0  0  0  0  0  0  0  0  0  0  0
    0.7263   -2.4900    2.0165 O   0  0  0  0  0  0  0  0  0  0  0  0
    1.0997   -3.2099   -0.7726 C   0  0  0  0  0  0  0  0  0  0  0  0
    0.6769   -2.0287   -1.5307 N   0  0  0  0  0  0  0  0  0  0  0  0
    1.5876   -1.5379   -2.5600 C   0  0  0  0  0  0  0  0  0  0  0  0
    3.4531   -2.6265   -0.3861 O   0  0  0  0  0  0  0  0  0  0  0  0
    4.0834   -3.6395   -1.1402 C   0  0  0  0  0  0  0  0  0  0  0  0
    2.9120   -2.2305    2.5208 C   0  0  0  0  0  0  0  0  0  0  0  0
    0.5481    4.1512    0.4633 H   0  0  0  0  0  0  0  0  0  0  0  0
    0.6974    3.6646   -1.3219 H   0  0  0  0  0  0  0  0  0  0  0  0
   -1.6307    4.7054   -0.8342 H   0  0  0  0  0  0  0  0  0  0  0  0
   -3.0327   -3.5726    1.0690 H   0  0  0  0  0  0  0  0  0  0  0  0
   -5.3650   -3.0620    0.6499 H   0  0  0  0  0  0  0  0  0  0  0  0
   -6.0281   -0.8051    0.0186 H   0  0  0  0  0  0  0  0  0  0  0  0
   -4.4295    0.9268   -0.2013 H   0  0  0  0  0  0  0  0  0  0  0  0
    4.6377   -0.8932    1.1147 H   0  0  0  0  0  0  0  0  0  0  0  0
    2.6853    3.3928   -0.1572 H   0  0  0  0  0  0  0  0  0  0  0  0
    5.0818    3.1327    0.0523 H   0  0  0  0  0  0  0  0  0  0  0  0
    6.0281    0.9792    0.6860 H   0  0  0  0  0  0  0  0  0  0  0  0
    0.1505   -4.7054    0.4854 H   0  0  0  0  0  0  0  0  0  0  0  0
   -0.9912   -3.8396   -0.5732 H   0  0  0  0  0  0  0  0  0  0  0  0
   -1.0634   -3.2997    1.9330 H   0  0  0  0  0  0  0  0  0  0  0  0
    2.4383   -4.0038    0.7103 H   0  0  0  0  0  0  0  0  0  0  0  0
    1.3294   -4.0197   -1.5060 H   0  0  0  0  0  0  0  0  0  0  0  0
   -0.2420   -2.2492   -1.9905 H   0  0  0  0  0  0  0  0  0  0  0  0
    1.0646   -0.7604   -3.1620 H   0  0  0  0  0  0  0  0  0  0  0  0
    2.4865   -1.0502   -2.1253 H   0  0  0  0  0  0  0  0  0  0  0  0
    1.8910   -2.3554   -3.2513 H   0  0  0  0  0  0  0  0  0  0  0  0
    5.0446   -3.2271   -1.5210 H   0  0  0  0  0  0  0  0  0  0  0  0
    4.3089   -4.5212   -0.5009 H   0  0  0  0  0  0  0  0  0  0  0  0
    3.4661   -3.9321   -2.0151 H   0  0  0  0  0  0  0  0  0  0  0  0
    2.7201   -3.1645    3.0978 H   0  0  0  0  0  0  0  0  0  0  0  0
    3.9648   -2.3684    2.2073 H   0  0  0  0  0  0  0  0  0  0  0  0
    2.8542   -1.3912    3.2513 H   0  0  0  0  0  0  0  0  0  0  0  0
  1  3  1  0      
  6  1  1  0      
  1 36  1  0      
  1 37  1  0      
  3  2  1  0      
  2  4  2  0      
  2  5  1  0      
  3 38  1  0      
  6  5  1  0      
  5  7  2  0      
 17  6  2  0      
  7  8  1  0      
  7 10  1  0      
 15  8  1  0      
  8 16  2  0      
 10  9  1  0      
 11  9  2  0      
  9 15  1  0      
 10 14  2  0      
 12 11  1  0      
 11 39  1  0      
 13 12  2  0      
 12 40  1  0      
 14 13  1  0      
 13 41  1  0      
 14 42  1  0      
 26 15  1  0      
 17 16  1  0      
 24 16  1  0      
 19 17  1  0      
 18 19  2  0      
 18 20  1  0      
 24 18  1  0      
 21 19  1  0      
 20 23  2  0      
 20 43  1  0      
 22 21  2  0      
 21 44  1  0      
 23 22  1  0      
 22 45  1  0      
 23 46  1  0      
 27 24  1  0      
 25 26  1  0      
 30 25  1  0      
 25 47  1  0      
 25 48  1  0      
 26 29  1  0      
 26 49  1  0      
 27 28  1  0      
 29 27  1  0      
 27 35  1  0      
 30 28  1  0      
 28 33  1  0      
 28 50  1  0      
 30 31  1  0      
 30 51  1  0      
 31 32  1  0      
 31 52  1  0      
 32 53  1  0      
 32 54  1  0      
 32 55  1  0      
 33 34  1  0      
 34 56  1  0      
 34 57  1  0      
 34 58  1  0      
 35 59  1  0      
 35 60  1  0      
 35 61  1  0      
M  END
