
  Chem3D Core 15.008161522063D

 69 73  0  0  0  0  0  0  0  0999 V2000
   -9.3871   -0.1643   -2.4823 Cl  0  0  0  0  0  0  0  0  0  0  0  0
   -4.0237   -1.0874    0.8868 S   0  0  0  0  0  0  0  0  0  0  0  0
    5.0991    1.6879    3.8207 O   0  0  0  0  0  0  0  0  0  0  0  0
    2.7543   -3.6690   -0.1625 O   0  0  0  0  0  0  0  0  0  0  0  0
   -3.4920    0.1503    0.3116 O   0  0  0  0  0  0  0  0  0  0  0  0
   -3.8096   -1.3976    2.3041 O   0  0  0  0  0  0  0  0  0  0  0  0
    6.7826    1.1495    2.4594 N   0  0  0  0  0  0  0  0  0  0  0  0
    8.3792    3.0784    1.0864 N   0  0  0  0  0  0  0  0  0  0  0  0
    3.9392   -1.6745    1.4674 N   0  0  0  0  0  0  0  0  0  0  0  0
    0.6735   -4.0636   -0.4568 N   0  0  0  0  0  0  0  0  0  0  0  0
   -5.4502   -1.6891    0.2042 N   0  0  0  0  0  0  0  0  0  0  0  0
    7.7964    1.9197    3.1719 C   0  0  0  0  0  0  0  0  0  0  0  0
    7.1733    0.9120    1.0709 C   0  0  0  0  0  0  0  0  0  0  0  0
    7.9852    3.2742    2.4749 C   0  0  0  0  0  0  0  0  0  0  0  0
    7.3873    2.2745    0.3849 C   0  0  0  0  0  0  0  0  0  0  0  0
    5.5164    0.9470    2.9597 C   0  0  0  0  0  0  0  0  0  0  0  0
    4.6876    0.0415    2.3739 C   0  0  0  0  0  0  0  0  0  0  0  0
    3.3595    0.1853    2.1931 C   0  0  0  0  0  0  0  0  0  0  0  0
    5.0207   -1.1747    1.9057 C   0  0  0  0  0  0  0  0  0  0  0  0
    8.5936    4.3520    0.4170 C   0  0  0  0  0  0  0  0  0  0  0  0
    2.9147   -0.9382    1.5913 C   0  0  0  0  0  0  0  0  0  0  0  0
    1.0594   -2.2381    0.5980 C   0  0  0  0  0  0  0  0  0  0  0  0
    1.6472   -1.2091    1.2372 C   0  0  0  0  0  0  0  0  0  0  0  0
   -0.2681   -2.3826    0.4184 C   0  0  0  0  0  0  0  0  0  0  0  0
    2.5361    1.4019    2.5353 C   0  0  0  0  0  0  0  0  0  0  0  0
   -0.4546   -3.5348   -0.2385 C   0  0  0  0  0  0  0  0  0  0  0  0
    6.3419   -1.8919    1.9555 C   0  0  0  0  0  0  0  0  0  0  0  0
   -2.5698   -2.0587    0.4374 C   0  0  0  0  0  0  0  0  0  0  0  0
   -1.3302   -1.6402    0.7650 C   0  0  0  0  0  0  0  0  0  0  0  0
    1.6029   -3.3365    0.0017 C   0  0  0  0  0  0  0  0  0  0  0  0
   -1.6722   -3.9773   -0.5675 C   0  0  0  0  0  0  0  0  0  0  0  0
   -2.7288   -3.2243   -0.2202 C   0  0  0  0  0  0  0  0  0  0  0  0
   -5.9333   -1.2208   -0.8880 C   0  0  0  0  0  0  0  0  0  0  0  0
   -6.4363   -2.2350    1.1830 C   0  0  0  0  0  0  0  0  0  0  0  0
   -7.2427   -0.9657   -1.1062 C   0  0  0  0  0  0  0  0  0  0  0  0
   -5.1109   -0.9686   -1.9305 C   0  0  0  0  0  0  0  0  0  0  0  0
   -7.6998   -0.4785   -2.2728 C   0  0  0  0  0  0  0  0  0  0  0  0
   -5.5502   -0.4826   -3.1019 C   0  0  0  0  0  0  0  0  0  0  0  0
   -6.8531   -0.2308   -3.2816 C   0  0  0  0  0  0  0  0  0  0  0  0
    3.9261   -2.6387    1.0745 H   0  0  0  0  0  0  0  0  0  0  0  0
    0.8278   -4.9680   -0.9553 H   0  0  0  0  0  0  0  0  0  0  0  0
    7.5414    2.0579    4.2471 H   0  0  0  0  0  0  0  0  0  0  0  0
    8.7581    1.3541    3.1651 H   0  0  0  0  0  0  0  0  0  0  0  0
    6.3966    0.3713    0.4860 H   0  0  0  0  0  0  0  0  0  0  0  0
    8.1127    0.3125    1.0322 H   0  0  0  0  0  0  0  0  0  0  0  0
    7.0380    3.8609    2.5432 H   0  0  0  0  0  0  0  0  0  0  0  0
    8.7729    3.8489    3.0192 H   0  0  0  0  0  0  0  0  0  0  0  0
    7.7198    2.0934   -0.6661 H   0  0  0  0  0  0  0  0  0  0  0  0
    6.4110    2.8144    0.3327 H   0  0  0  0  0  0  0  0  0  0  0  0
    8.9406    4.1958   -0.6303 H   0  0  0  0  0  0  0  0  0  0  0  0
    9.3871    4.9412    0.9315 H   0  0  0  0  0  0  0  0  0  0  0  0
    7.6658    4.9680    0.3883 H   0  0  0  0  0  0  0  0  0  0  0  0
    0.9349   -0.4311    1.5553 H   0  0  0  0  0  0  0  0  0  0  0  0
    3.1289    2.3400    2.4621 H   0  0  0  0  0  0  0  0  0  0  0  0
    1.6919    1.5597    1.8300 H   0  0  0  0  0  0  0  0  0  0  0  0
    2.1251    1.3112    3.5662 H   0  0  0  0  0  0  0  0  0  0  0  0
    7.0710   -1.4141    2.6452 H   0  0  0  0  0  0  0  0  0  0  0  0
    6.1821   -2.9269    2.3347 H   0  0  0  0  0  0  0  0  0  0  0  0
    6.7872   -1.9772    0.9391 H   0  0  0  0  0  0  0  0  0  0  0  0
   -1.1959   -0.6967    1.3154 H   0  0  0  0  0  0  0  0  0  0  0  0
   -1.8008   -4.9299   -1.1059 H   0  0  0  0  0  0  0  0  0  0  0  0
   -3.7347   -3.5880   -0.4879 H   0  0  0  0  0  0  0  0  0  0  0  0
   -5.9285   -2.8989    1.9192 H   0  0  0  0  0  0  0  0  0  0  0  0
   -6.9442   -1.4253    1.7564 H   0  0  0  0  0  0  0  0  0  0  0  0
   -7.1797   -2.9105    0.7020 H   0  0  0  0  0  0  0  0  0  0  0  0
   -7.9992   -1.1280   -0.3227 H   0  0  0  0  0  0  0  0  0  0  0  0
   -4.0288   -1.1744   -1.8762 H   0  0  0  0  0  0  0  0  0  0  0  0
   -4.8400   -0.2976   -3.9259 H   0  0  0  0  0  0  0  0  0  0  0  0
   -7.2080    0.1661   -4.2471 H   0  0  0  0  0  0  0  0  0  0  0  0
  1 37  1  0      
  2  5  2  0      
  2  6  2  0      
  2 11  1  0      
  2 28  1  0      
  3 16  2  0      
  4 30  2  0      
  7 12  1  0      
  7 13  1  0      
  7 16  1  0      
 14  8  1  0      
  8 15  1  0      
  8 20  1  0      
 19  9  1  0      
 21  9  1  0      
  9 40  1  0      
 10 26  1  0      
 10 30  1  0      
 10 41  1  0      
 11 33  1  0      
 11 34  1  0      
 12 14  1  0      
 12 42  1  0      
 12 43  1  0      
 15 13  1  0      
 13 44  1  0      
 13 45  1  0      
 14 46  1  0      
 14 47  1  0      
 15 48  1  0      
 15 49  1  0      
 16 17  1  0      
 17 18  1  0      
 19 17  2  0      
 18 21  2  0      
 18 25  1  0      
 19 27  1  0      
 20 50  1  0      
 20 51  1  0      
 20 52  1  0      
 21 23  1  0      
 22 23  2  0      
 22 24  1  0      
 22 30  1  0      
 23 53  1  0      
 24 26  2  0      
 24 29  1  0      
 25 54  1  0      
 25 55  1  0      
 25 56  1  0      
 26 31  1  0      
 27 57  1  0      
 27 58  1  0      
 27 59  1  0      
 28 29  2  0      
 28 32  1  0      
 29 60  1  0      
 31 32  2  0      
 31 61  1  0      
 32 62  1  0      
 33 35  1  0      
 33 36  2  0      
 34 63  1  0      
 34 64  1  0      
 34 65  1  0      
 35 37  2  0      
 35 66  1  0      
 38 36  1  0      
 36 67  1  0      
 37 39  1  0      
 39 38  2  0      
 38 68  1  0      
 39 69  1  0      
M  END
