
  Chem3D Core 14.010291516363D

  0  0  0     0  0              0 V3000
M  V30 BEGIN CTAB
M  V30 COUNTS 57 59 0 0 0
M  V30 BEGIN ATOM
M  V30 1 S 3.464755 4.323452 -0.579574 0
M  V30 2 O -4.588644 1.183468 1.555727 0
M  V30 3 O -5.683887 -1.905890 -0.731825 0
M  V30 4 N 0.082476 1.096830 0.232783 0
M  V30 5 N -3.703712 -1.114032 0.075660 0
M  V30 6 C -2.865970 0.135518 0.218699 0
M  V30 7 C -1.826135 0.006486 1.374974 0
M  V30 8 C -1.932234 0.348850 -1.007303 0
M  V30 9 C -0.707671 1.060080 1.448722 0
M  V30 10 C -0.801300 1.386034 -0.878510 0
M  V30 11 C -3.758279 1.373399 0.438557 0
M  V30 12 C 1.178746 2.054434 0.356101 0
M  V30 13 C -3.807574 -2.066383 1.048575 0
M  V30 14 C -4.680269 -1.256334 -0.914572 0
M  V30 15 C 2.145259 2.062393 -0.843509 0
M  V30 16 C -4.452250 -0.642828 -2.293371 0
M  V30 17 C -3.844851 -3.359496 0.656740 0
M  V30 18 C -3.905148 -1.853143 2.375123 0
M  V30 19 C 3.397207 2.852256 -0.541758 0
M  V30 20 C -5.466710 2.266746 1.770626 0
M  V30 21 C -5.497180 -1.062738 -3.343889 0
M  V30 22 C -3.940118 -4.377095 1.526537 0
M  V30 23 C -4.003669 -2.857761 3.260486 0
M  V30 24 C 4.572171 2.300958 -0.204102 0
M  V30 25 C -4.015299 -4.129940 2.840887 0
M  V30 26 C 5.472016 3.267443 0.000051 0
M  V30 27 C 4.876947 4.448127 -0.205570 0
M  V30 28 H -2.303548 0.082793 2.374357 0
M  V30 29 H -1.333299 -0.994075 1.306317 0
M  V30 30 H -1.472188 -0.633868 -1.273859 0
M  V30 31 H -2.493151 0.717990 -1.890750 0
M  V30 32 H -0.048091 0.804805 2.314752 0
M  V30 33 H -1.139620 2.063846 1.672730 0
M  V30 34 H -0.229209 1.367281 -1.836554 0
M  V30 35 H -1.229456 2.412000 -0.783683 0
M  V30 36 H -4.398384 1.564926 -0.448037 0
M  V30 37 H -3.141636 2.283740 0.601389 0
M  V30 38 H 1.786721 1.787770 1.255520 0
M  V30 39 H 0.785835 3.085447 0.523941 0
M  V30 40 H 1.663181 2.481967 -1.756683 0
M  V30 41 H 2.427276 1.010465 -1.087103 0
M  V30 42 H -4.510626 0.467165 -2.244711 0
M  V30 43 H -3.471815 -1.006802 -2.682624 0
M  V30 44 H -3.760623 -3.625693 -0.411939 0
M  V30 45 H -3.978224 -0.841923 2.794713 0
M  V30 46 H -6.073124 2.041202 2.676162 0
M  V30 47 H -4.890264 3.201615 1.948563 0
M  V30 48 H -6.152484 2.385816 0.902573 0
M  V30 49 H -5.264904 -0.614021 -4.337719 0
M  V30 50 H -5.519528 -2.168815 -3.478529 0
M  V30 51 H -6.521046 -0.724494 -3.062434 0
M  V30 52 H -3.951466 -5.418566 1.163092 0
M  V30 53 H -4.100434 -2.639333 4.337719 0
M  V30 54 H 4.768797 1.224665 -0.107452 0
M  V30 55 H -4.100933 -4.958426 3.563171 0
M  V30 56 H 6.521046 3.117241 0.288422 0
M  V30 57 H 5.382755 5.418566 -0.106785 0
M  V30 END ATOM
M  V30 BEGIN BOND
M  V30 1 1 19 1
M  V30 2 1 27 1
M  V30 3 1 2 11
M  V30 4 1 2 20
M  V30 5 2 3 14
M  V30 6 1 4 9
M  V30 7 1 4 10
M  V30 8 1 4 12
M  V30 9 1 5 6
M  V30 10 1 5 13
M  V30 11 1 5 14
M  V30 12 1 7 6
M  V30 13 1 6 8
M  V30 14 1 6 11
M  V30 15 1 9 7
M  V30 16 1 7 28
M  V30 17 1 7 29
M  V30 18 1 8 10
M  V30 19 1 8 30
M  V30 20 1 8 31
M  V30 21 1 9 32
M  V30 22 1 9 33
M  V30 23 1 10 34
M  V30 24 1 10 35
M  V30 25 1 11 36
M  V30 26 1 11 37
M  V30 27 1 12 15
M  V30 28 1 12 38
M  V30 29 1 12 39
M  V30 30 1 13 17
M  V30 31 2 13 18
M  V30 32 1 14 16
M  V30 33 1 15 19
M  V30 34 1 15 40
M  V30 35 1 15 41
M  V30 36 1 16 21
M  V30 37 1 16 42
M  V30 38 1 16 43
M  V30 39 2 17 22
M  V30 40 1 17 44
M  V30 41 1 23 18
M  V30 42 1 18 45
M  V30 43 2 19 24
M  V30 44 1 20 46
M  V30 45 1 20 47
M  V30 46 1 20 48
M  V30 47 1 21 49
M  V30 48 1 21 50
M  V30 49 1 21 51
M  V30 50 1 22 25
M  V30 51 1 22 52
M  V30 52 2 25 23
M  V30 53 1 23 53
M  V30 54 1 24 26
M  V30 55 1 24 54
M  V30 56 1 25 55
M  V30 57 2 26 27
M  V30 58 1 26 56
M  V30 59 1 27 57
M  V30 END BOND
M  V30 END CTAB
M  END
