
  Chem3D Core 14.010291516483D

  0  0  0     0  0              0 V3000
M  V30 BEGIN CTAB
M  V30 COUNTS 31 32 0 0 0
M  V30 BEGIN ATOM
M  V30 1 S 2.051798 0.849474 1.126107 0
M  V30 2 O -0.363691 1.325782 -0.486285 0
M  V30 3 O 3.390626 0.372848 0.762497 0
M  V30 4 O 1.854750 2.203285 1.653657 0
M  V30 5 N 1.828070 1.394776 -0.472797 0
M  V30 6 N 0.507498 2.422739 -2.002064 0
M  V30 7 N -1.794851 -3.153107 2.623890 0
M  V30 8 C 0.875338 -0.405334 1.612307 0
M  V30 9 C 0.703772 1.717634 -0.965477 0
M  V30 10 C -1.284200 1.762412 -1.168887 0
M  V30 11 C -0.744044 2.480190 -2.160085 0
M  V30 12 C 0.731494 -1.517331 0.871704 0
M  V30 13 C 0.105687 -0.235057 2.700353 0
M  V30 14 C -0.173278 -2.448434 1.212728 0
M  V30 15 C -0.797655 -1.166369 3.045125 0
M  V30 16 C -0.939945 -2.274707 2.300981 0
M  V30 17 C -2.735565 1.507426 -0.900992 0
M  V30 18 C -1.401940 3.226736 -3.276456 0
M  V30 19 H 2.675564 1.720840 -0.998531 0
M  V30 20 H -2.394699 -3.017948 3.474272 0
M  V30 21 H -1.906559 -4.019716 2.042721 0
M  V30 22 H 1.351737 -1.676622 -0.026433 0
M  V30 23 H 0.200842 0.672378 3.319810 0
M  V30 24 H -0.278502 -3.353461 0.590395 0
M  V30 25 H -1.422350 -1.008092 3.940795 0
M  V30 26 H -3.390626 2.001869 -1.652067 0
M  V30 27 H -2.940516 0.413212 -0.927416 0
M  V30 28 H -3.009608 1.893263 0.106952 0
M  V30 29 H -0.653090 3.713983 -3.940795 0
M  V30 30 H -2.012806 2.532408 -3.896576 0
M  V30 31 H -2.068667 4.019716 -2.868448 0
M  V30 END ATOM
M  V30 BEGIN BOND
M  V30 1 2 1 3
M  V30 2 2 1 4
M  V30 3 1 1 5
M  V30 4 1 1 8
M  V30 5 1 9 2
M  V30 6 1 10 2
M  V30 7 1 5 9
M  V30 8 1 5 19
M  V30 9 2 9 6
M  V30 10 1 6 11
M  V30 11 1 7 16
M  V30 12 1 7 20
M  V30 13 1 7 21
M  V30 14 1 8 12
M  V30 15 2 8 13
M  V30 16 2 11 10
M  V30 17 1 10 17
M  V30 18 1 11 18
M  V30 19 2 12 14
M  V30 20 1 12 22
M  V30 21 1 15 13
M  V30 22 1 13 23
M  V30 23 1 14 16
M  V30 24 1 14 24
M  V30 25 2 16 15
M  V30 26 1 15 25
M  V30 27 1 17 26
M  V30 28 1 17 27
M  V30 29 1 17 28
M  V30 30 1 18 29
M  V30 31 1 18 30
M  V30 32 1 18 31
M  V30 END BOND
M  V30 END CTAB
M  END
