
  Chem3D Core 15.010061510393D

 27 28  0  0  0  0  0  0  0  0999 V2000
    3.1039    3.3639   -0.8611 N   0  0  0  0  0  0  0  0  0  0  0  0
    2.4895    2.4182   -0.2824 C   0  0  0  0  0  0  0  0  0  0  0  0
    3.0572    1.2063   -0.1811 C   0  0  0  0  0  0  0  0  0  0  0  0
    2.4048    0.2057    0.4315 C   0  0  0  0  0  0  0  0  0  0  0  0
    1.1796    0.4018    0.9496 C   0  0  0  0  0  0  0  0  0  0  0  0
    0.2940   -0.9475    1.7492 S   0  0  0  0  0  0  0  0  0  0  0  0
    1.1813   -2.0599    2.0617 O   0  0  0  0  0  0  0  0  0  0  0  0
   -0.7214   -0.4430    2.6641 O   0  0  0  0  0  0  0  0  0  0  0  0
   -0.3645   -1.1435    0.1915 N   0  0  0  0  0  0  0  0  0  0  0  0
   -1.3090   -1.9440   -0.1089 C   0  0  0  0  0  0  0  0  0  0  0  0
   -1.7952   -1.8431   -1.2800 N   0  0  0  0  0  0  0  0  0  0  0  0
   -2.7349   -2.6087   -1.6405 C   0  0  0  0  0  0  0  0  0  0  0  0
   -3.2438   -3.5372   -0.8203 C   0  0  0  0  0  0  0  0  0  0  0  0
   -2.6808   -3.5845    0.3939 C   0  0  0  0  0  0  0  0  0  0  0  0
   -1.7422   -2.8036    0.7217 N   0  0  0  0  0  0  0  0  0  0  0  0
    0.6166    1.6184    0.8419 C   0  0  0  0  0  0  0  0  0  0  0  0
    1.2664    2.6219    0.2313 C   0  0  0  0  0  0  0  0  0  0  0  0
    2.6600    4.3115   -0.9407 H   0  0  0  0  0  0  0  0  0  0  0  0
    4.0600    3.2041   -1.2630 H   0  0  0  0  0  0  0  0  0  0  0  0
    4.0614    1.0211   -0.5994 H   0  0  0  0  0  0  0  0  0  0  0  0
    2.8946   -0.7800    0.4982 H   0  0  0  0  0  0  0  0  0  0  0  0
   -0.0760   -0.4810   -0.5717 H   0  0  0  0  0  0  0  0  0  0  0  0
   -3.1247   -2.4840   -2.6641 H   0  0  0  0  0  0  0  0  0  0  0  0
   -4.0614   -4.2098   -1.1210 H   0  0  0  0  0  0  0  0  0  0  0  0
   -3.0218   -4.3115    1.1490 H   0  0  0  0  0  0  0  0  0  0  0  0
   -0.3903    1.8115    1.2481 H   0  0  0  0  0  0  0  0  0  0  0  0
    0.7836    3.6112    0.1541 H   0  0  0  0  0  0  0  0  0  0  0  0
  1  2  1  0      
  1 18  1  0      
  1 19  1  0      
  2  3  1  0      
  2 17  2  0      
  3  4  2  0      
  3 20  1  0      
  4  5  1  0      
  4 21  1  0      
  5  6  1  0      
  5 16  2  0      
  6  7  2  0      
  6  8  2  0      
  6  9  1  0      
  9 10  1  0      
  9 22  1  0      
 11 10  2  0      
 10 15  1  0      
 12 11  1  0      
 13 12  2  0      
 12 23  1  0      
 14 13  1  0      
 13 24  1  0      
 14 15  2  0      
 14 25  1  0      
 16 17  1  0      
 16 26  1  0      
 17 27  1  0      
M  END
