
  Chem3D Core 14.010291516513D

  0  0  0     0  0              0 V3000
M  V30 BEGIN CTAB
M  V30 COUNTS 36 38 0 0 0
M  V30 BEGIN ATOM
M  V30 1 S 2.105850 0.415771 -1.117359 0
M  V30 2 O 2.286748 0.162494 -2.551269 0
M  V30 3 O 3.241316 0.835625 -0.288707 0
M  V30 4 N -0.553604 2.321826 -1.100937 0
M  V30 5 N 1.725765 2.044980 -1.461470 0
M  V30 6 N -1.521576 2.435538 -1.878522 0
M  V30 7 N -2.186178 -2.346100 1.533999 0
M  V30 8 C 0.517300 2.252640 -1.803996 0
M  V30 9 C 0.802615 -0.500934 -0.306692 0
M  V30 10 C -0.731391 2.313974 0.172353 0
M  V30 11 C 0.197539 2.410726 -3.097239 0
M  V30 12 C 0.878787 -0.779155 1.006047 0
M  V30 13 C -0.291968 -0.874924 -0.991382 0
M  V30 14 C -1.131383 2.511195 -3.076558 0
M  V30 15 C -0.133612 -1.400293 1.631381 0
M  V30 16 C -1.302847 -1.503201 -0.370812 0
M  V30 17 C -1.976322 2.311895 0.703060 0
M  V30 18 C 0.271769 2.332524 1.076020 0
M  V30 19 C -1.228143 -1.762464 0.944063 0
M  V30 20 C -2.206807 2.290282 2.025650 0
M  V30 21 C 0.063049 2.312920 2.402238 0
M  V30 22 C -1.183650 2.283973 2.888970 0
M  V30 23 H 2.285265 2.292172 -2.321677 0
M  V30 24 H -3.042479 -2.629082 0.997505 0
M  V30 25 H -2.128214 -2.548394 2.562055 0
M  V30 26 H 0.853009 2.414275 -3.976351 0
M  V30 27 H 1.767226 -0.490891 1.592322 0
M  V30 28 H -0.384406 -0.654834 -2.068179 0
M  V30 29 H -1.804725 2.629082 -3.934302 0
M  V30 30 H -0.055777 -1.606767 2.712461 0
M  V30 31 H -2.196826 -1.791268 -0.949740 0
M  V30 32 H -2.882635 2.307956 0.074172 0
M  V30 33 H 1.328013 2.388245 0.780810 0
M  V30 34 H -3.241316 2.275153 2.409144 0
M  V30 35 H 0.918480 2.328252 3.099097 0
M  V30 36 H -1.363721 2.267498 3.976351 0
M  V30 END ATOM
M  V30 BEGIN BOND
M  V30 1 2 1 2
M  V30 2 2 1 3
M  V30 3 1 1 5
M  V30 4 1 1 9
M  V30 5 1 4 6
M  V30 6 1 8 4
M  V30 7 1 4 10
M  V30 8 1 5 8
M  V30 9 1 5 23
M  V30 10 2 14 6
M  V30 11 1 7 19
M  V30 12 1 7 24
M  V30 13 1 7 25
M  V30 14 2 11 8
M  V30 15 1 9 12
M  V30 16 2 9 13
M  V30 17 1 10 17
M  V30 18 2 10 18
M  V30 19 1 14 11
M  V30 20 1 11 26
M  V30 21 2 12 15
M  V30 22 1 12 27
M  V30 23 1 16 13
M  V30 24 1 13 28
M  V30 25 1 14 29
M  V30 26 1 15 19
M  V30 27 1 15 30
M  V30 28 2 19 16
M  V30 29 1 16 31
M  V30 30 2 17 20
M  V30 31 1 17 32
M  V30 32 1 21 18
M  V30 33 1 18 33
M  V30 34 1 20 22
M  V30 35 1 20 34
M  V30 36 2 22 21
M  V30 37 1 21 35
M  V30 38 1 22 36
M  V30 END BOND
M  V30 END CTAB
M  END
