
  Chem3D Core 14.010291515473D

  0  0  0     0  0              0 V3000
M  V30 BEGIN CTAB
M  V30 COUNTS 31 32 0 0 0
M  V30 BEGIN ATOM
M  V30 1 S 2.029418 0.867791 0.581916 0
M  V30 2 O 0.590047 1.401610 -2.508558 0
M  V30 3 O 3.303302 0.392857 0.028711 0
M  V30 4 O 1.984840 2.009658 1.498891 0
M  V30 5 N 1.841345 1.873254 -0.782921 0
M  V30 6 N -0.682318 1.505009 -2.843589 0
M  V30 7 N -2.193645 -3.013650 1.009384 0
M  V30 8 C 0.733974 -0.355652 0.728267 0
M  V30 9 C 0.721582 1.890506 -1.384561 0
M  V30 10 C -0.462859 2.326917 -0.924497 0
M  V30 11 C -1.328866 2.062851 -1.913166 0
M  V30 12 C 0.484993 -1.202898 -0.284797 0
M  V30 13 C -0.015189 -0.426297 1.841469 0
M  V30 14 C -0.775820 2.993452 0.381032 0
M  V30 15 C -0.507402 -2.101948 -0.192177 0
M  V30 16 C -1.005908 -1.326945 1.938466 0
M  V30 17 C -1.255812 -2.165599 0.920420 0
M  V30 18 C -2.801719 2.315840 -1.982132 0
M  V30 19 H 2.591408 1.645926 -1.487637 0
M  V30 20 H -2.779160 -3.065059 1.878719 0
M  V30 21 H -2.389078 -3.669850 0.214137 0
M  V30 22 H 1.090156 -1.169596 -1.206339 0
M  V30 23 H 0.168064 0.257971 2.686731 0
M  V30 24 H -1.693576 3.617872 0.303477 0
M  V30 25 H -0.945874 2.234149 1.176241 0
M  V30 26 H 0.051110 3.669850 0.692029 0
M  V30 27 H -0.698561 -2.785163 -1.037240 0
M  V30 28 H -1.612490 -1.366154 2.859327 0
M  V30 29 H -3.264001 1.809515 -2.859327 0
M  V30 30 H -3.303302 1.934100 -1.064165 0
M  V30 31 H -2.999198 3.408324 -2.067370 0
M  V30 END ATOM
M  V30 BEGIN BOND
M  V30 1 2 1 3
M  V30 2 2 1 4
M  V30 3 1 1 5
M  V30 4 1 1 8
M  V30 5 1 2 6
M  V30 6 1 9 2
M  V30 7 1 5 9
M  V30 8 1 5 19
M  V30 9 2 6 11
M  V30 10 1 7 17
M  V30 11 1 7 20
M  V30 12 1 7 21
M  V30 13 1 8 12
M  V30 14 2 8 13
M  V30 15 2 9 10
M  V30 16 1 11 10
M  V30 17 1 10 14
M  V30 18 1 11 18
M  V30 19 2 12 15
M  V30 20 1 12 22
M  V30 21 1 16 13
M  V30 22 1 13 23
M  V30 23 1 14 24
M  V30 24 1 14 25
M  V30 25 1 14 26
M  V30 26 1 15 17
M  V30 27 1 15 27
M  V30 28 2 17 16
M  V30 29 1 16 28
M  V30 30 1 18 29
M  V30 31 1 18 30
M  V30 32 1 18 31
M  V30 END BOND
M  V30 END CTAB
M  END
