
  Chem3D Core 14.010291516403D

  0  0  0     0  0              0 V3000
M  V30 BEGIN CTAB
M  V30 COUNTS 35 36 0 0 0
M  V30 BEGIN ATOM
M  V30 1 C -1.682426 -2.575531 -1.576299 0
M  V30 2 N -2.065215 -1.367905 -1.610808 0
M  V30 3 C -1.268043 -0.430818 -1.304272 0
M  V30 4 N -0.067150 -0.635828 -0.956435 0
M  V30 5 C 0.404079 -1.810016 -0.909278 0
M  V30 6 N 1.603816 -2.075678 -0.579252 0
M  V30 7 S 2.878083 -1.013117 -0.899805 0
M  V30 8 O 4.192705 -1.425999 -0.400190 0
M  V30 9 O 2.751160 -0.223547 -2.128097 0
M  V30 10 C 2.894212 0.440792 0.169279 0
M  V30 11 C 2.091880 0.493329 1.247516 0
M  V30 12 C 2.086378 1.569149 2.050360 0
M  V30 13 C 2.893009 2.609162 1.788329 0
M  V30 14 N 2.889756 3.625748 2.545419 0
M  V30 15 C 3.705631 2.562970 0.721358 0
M  V30 16 C 3.706116 1.485107 -0.078871 0
M  V30 17 C -0.411060 -2.830900 -1.221319 0
M  V30 18 O -2.558129 -3.573576 -1.925828 0
M  V30 19 C -3.818901 -3.521980 -1.297202 0
M  V30 20 O -1.720012 0.868119 -1.341786 0
M  V30 21 C -1.205302 1.623266 -2.414700 0
M  V30 22 H 1.835905 -3.099770 -0.549256 0
M  V30 23 H 1.423484 -0.347539 1.495758 0
M  V30 24 H 1.415712 1.587000 2.926466 0
M  V30 25 H 3.522372 4.437379 2.339789 0
M  V30 26 H 2.255152 3.660590 3.380458 0
M  V30 27 H 4.379359 3.406623 0.493400 0
M  V30 28 H 4.389159 1.475144 -0.944961 0
M  V30 29 H -0.057107 -3.874967 -1.197062 0
M  V30 30 H -4.383764 -4.437379 -1.582766 0
M  V30 31 H -3.690864 -3.502846 -0.191580 0
M  V30 32 H -4.389159 -2.631183 -1.642307 0
M  V30 33 H -1.661922 2.637256 -2.374796 0
M  V30 34 H -0.100297 1.719858 -2.321021 0
M  V30 35 H -1.472086 1.138325 -3.380458 0
M  V30 END ATOM
M  V30 BEGIN BOND
M  V30 1 1 1 2
M  V30 2 2 17 1
M  V30 3 1 18 1
M  V30 4 2 2 3
M  V30 5 1 3 4
M  V30 6 1 3 20
M  V30 7 2 5 4
M  V30 8 1 5 6
M  V30 9 1 5 17
M  V30 10 1 6 7
M  V30 11 1 6 22
M  V30 12 2 7 8
M  V30 13 2 7 9
M  V30 14 1 7 10
M  V30 15 1 10 11
M  V30 16 2 10 16
M  V30 17 2 11 12
M  V30 18 1 11 23
M  V30 19 1 12 13
M  V30 20 1 12 24
M  V30 21 1 13 14
M  V30 22 2 13 15
M  V30 23 1 14 25
M  V30 24 1 14 26
M  V30 25 1 15 16
M  V30 26 1 15 27
M  V30 27 1 16 28
M  V30 28 1 17 29
M  V30 29 1 18 19
M  V30 30 1 19 30
M  V30 31 1 19 31
M  V30 32 1 19 32
M  V30 33 1 20 21
M  V30 34 1 21 33
M  V30 35 1 21 34
M  V30 36 1 21 35
M  V30 END BOND
M  V30 END CTAB
M  END
