
  Chem3D Core 14.010291516573D

  0  0  0     0  0              0 V3000
M  V30 BEGIN CTAB
M  V30 COUNTS 42 44 0 0 0
M  V30 BEGIN ATOM
M  V30 1 C 1.258164 2.177837 -1.443590 0
M  V30 2 S 2.351372 3.548623 -1.857734 0
M  V30 3 C 1.552129 0.925303 -1.829943 0
M  V30 4 C 0.141484 2.377000 -0.723968 0
M  V30 5 N 3.152768 3.040155 -0.445146 0
M  V30 6 O 3.139368 3.234392 -3.042135 0
M  V30 7 O 1.693440 4.830053 -1.640738 0
M  V30 8 C 0.745616 -0.096864 -1.504767 0
M  V30 9 C -0.663984 1.351535 -0.402777 0
M  V30 10 C 4.253090 3.525108 -0.030240 0
M  V30 11 C -0.378509 0.091975 -0.786924 0
M  V30 12 C 4.808108 2.917936 1.036902 0
M  V30 13 N 4.822683 4.524200 -0.567217 0
M  V30 14 N -1.071533 -0.940202 -0.533464 0
M  V30 15 C 5.969169 3.365542 1.538981 0
M  V30 16 C 5.917548 4.958412 -0.106095 0
M  V30 17 N -2.127309 -0.828791 0.129902 0
M  V30 18 C 6.546351 4.421494 0.949642 0
M  V30 19 C -2.824021 -1.859009 0.383117 0
M  V30 20 C -3.951037 -1.678680 1.099777 0
M  V30 21 C -2.534048 -3.114108 -0.002770 0
M  V30 22 C -4.778550 -2.690329 1.434980 0
M  V30 23 C -3.348216 -4.126894 0.324211 0
M  V30 24 C -4.471653 -3.944776 1.038950 0
M  V30 25 C -5.909306 -2.442033 2.164670 0
M  V30 26 O -5.236977 -5.033957 1.323039 0
M  V30 27 O -6.787131 -3.405968 2.538094 0
M  V30 28 O -6.218185 -1.329717 2.538674 0
M  V30 29 H 2.461973 0.716301 -2.417127 0
M  V30 30 H -0.130148 3.389341 -0.380700 0
M  V30 31 H 2.780329 2.216304 0.089204 0
M  V30 32 H 1.026405 -1.110582 -1.842076 0
M  V30 33 H -1.563636 1.587357 0.190055 0
M  V30 34 H 4.325551 2.048376 1.515620 0
M  V30 35 H 6.436681 2.880002 2.410939 0
M  V30 36 H 6.354537 5.829225 -0.623552 0
M  V30 37 H 7.499854 4.832088 1.318434 0
M  V30 38 H -4.179767 -0.644484 1.411178 0
M  V30 39 H -1.633696 -3.355483 -0.591770 0
M  V30 40 H -3.086232 -5.147166 -0.005804 0
M  V30 41 H -4.833842 -5.829225 0.940427 0
M  V30 42 H -7.499854 -2.981808 3.042135 0
M  V30 END ATOM
M  V30 BEGIN BOND
M  V30 1 1 1 2
M  V30 2 1 1 3
M  V30 3 2 1 4
M  V30 4 1 2 5
M  V30 5 2 2 6
M  V30 6 2 2 7
M  V30 7 2 3 8
M  V30 8 1 3 29
M  V30 9 1 9 4
M  V30 10 1 4 30
M  V30 11 1 5 10
M  V30 12 1 5 31
M  V30 13 1 8 11
M  V30 14 1 8 32
M  V30 15 2 11 9
M  V30 16 1 9 33
M  V30 17 1 12 10
M  V30 18 2 10 13
M  V30 19 1 11 14
M  V30 20 2 15 12
M  V30 21 1 12 34
M  V30 22 1 13 16
M  V30 23 2 14 17
M  V30 24 1 18 15
M  V30 25 1 15 35
M  V30 26 2 18 16
M  V30 27 1 16 36
M  V30 28 1 17 19
M  V30 29 1 18 37
M  V30 30 1 19 20
M  V30 31 2 19 21
M  V30 32 2 20 22
M  V30 33 1 20 38
M  V30 34 1 23 21
M  V30 35 1 21 39
M  V30 36 1 22 24
M  V30 37 1 22 25
M  V30 38 2 24 23
M  V30 39 1 23 40
M  V30 40 1 24 26
M  V30 41 1 25 27
M  V30 42 2 25 28
M  V30 43 1 26 41
M  V30 44 1 27 42
M  V30 END BOND
M  V30 END CTAB
M  END
