
  Chem3D Core 14.010291516593D

  0  0  0     0  0              0 V3000
M  V30 BEGIN CTAB
M  V30 COUNTS 49 52 0 0 0
M  V30 BEGIN ATOM
M  V30 1 S 2.910932 3.131864 -2.008544 0
M  V30 2 O -1.556936 1.261904 -3.023220 0
M  V30 3 O 0.291193 -1.235542 0.372220 0
M  V30 4 O 3.493649 3.914998 -3.091703 0
M  V30 5 N -2.010786 0.479192 -0.974079 0
M  V30 6 N -1.677499 -0.789334 -0.597409 0
M  V30 7 C 0.089678 0.097720 -1.658859 0
M  V30 8 C 1.164103 1.121679 -1.272753 0
M  V30 9 C -1.273908 0.703597 -1.987048 0
M  V30 10 C -0.409915 -0.751088 -0.487891 0
M  V30 11 C 1.603780 2.005252 -2.450989 0
M  V30 12 C -2.831056 1.264906 -0.381052 0
M  V30 13 C -2.483374 -1.770046 -0.425315 0
M  V30 14 C -3.430679 0.919028 0.779106 0
M  V30 15 C -2.078160 -2.983118 0.007311 0
M  V30 16 C -3.093653 2.512952 -0.825052 0
M  V30 17 C -3.792549 -1.667536 -0.742937 0
M  V30 18 C 3.453766 3.308279 -0.317466 0
M  V30 19 C -4.283170 1.731741 1.423241 0
M  V30 20 C -2.928730 -4.008943 0.172895 0
M  V30 21 C -3.943683 3.338742 -0.193668 0
M  V30 22 C -4.656176 -2.682837 -0.583537 0
M  V30 23 C -4.553135 2.948589 0.933382 0
M  V30 24 C -4.228830 -3.862114 -0.113967 0
M  V30 25 C 2.824521 4.162125 0.506902 0
M  V30 26 C 4.479472 2.572819 0.142457 0
M  V30 27 C 3.220537 4.281646 1.783908 0
M  V30 28 C 4.876652 2.693803 1.418992 0
M  V30 29 C 4.247449 3.548241 2.240598 0
M  V30 30 H 0.415559 -0.574101 -2.485546 0
M  V30 31 H 2.050274 0.566378 -0.880958 0
M  V30 32 H 0.776133 1.760100 -0.443161 0
M  V30 33 H 0.746280 2.611431 -2.822359 0
M  V30 34 H 1.962882 1.365266 -3.289925 0
M  V30 35 H -3.232865 -0.048229 1.268717 0
M  V30 36 H -1.025314 -3.198634 0.245260 0
M  V30 37 H -2.619941 2.925495 -1.729034 0
M  V30 38 H -4.214016 -0.742222 -1.168999 0
M  V30 39 H -4.753201 1.407226 2.367198 0
M  V30 40 H -2.558764 -4.982820 0.536630 0
M  V30 41 H -4.136237 4.348732 -0.594210 0
M  V30 42 H -5.718574 -2.555090 -0.852379 0
M  V30 43 H -5.245587 3.625253 1.460725 0
M  V30 44 H -4.930124 -4.703310 0.012539 0
M  V30 45 H 1.978499 4.770399 0.145285 0
M  V30 46 H 5.001586 1.862078 -0.519904 0
M  V30 47 H 2.701687 4.982820 2.458909 0
M  V30 48 H 5.718574 2.088191 1.794348 0
M  V30 49 H 4.572483 3.646068 3.289925 0
M  V30 END ATOM
M  V30 BEGIN BOND
M  V30 1 2 1 4
M  V30 2 1 1 11
M  V30 3 1 1 18
M  V30 4 2 2 9
M  V30 5 2 3 10
M  V30 6 1 5 6
M  V30 7 1 9 5
M  V30 8 1 5 12
M  V30 9 1 10 6
M  V30 10 1 6 13
M  V30 11 1 7 8
M  V30 12 1 7 9
M  V30 13 1 10 7
M  V30 14 1 7 30
M  V30 15 1 8 11
M  V30 16 1 8 31
M  V30 17 1 8 32
M  V30 18 1 11 33
M  V30 19 1 11 34
M  V30 20 1 12 14
M  V30 21 2 12 16
M  V30 22 1 13 15
M  V30 23 2 13 17
M  V30 24 2 14 19
M  V30 25 1 14 35
M  V30 26 2 15 20
M  V30 27 1 15 36
M  V30 28 1 21 16
M  V30 29 1 16 37
M  V30 30 1 22 17
M  V30 31 1 17 38
M  V30 32 1 18 25
M  V30 33 2 18 26
M  V30 34 1 19 23
M  V30 35 1 19 39
M  V30 36 1 20 24
M  V30 37 1 20 40
M  V30 38 2 23 21
M  V30 39 1 21 41
M  V30 40 2 24 22
M  V30 41 1 22 42
M  V30 42 1 23 43
M  V30 43 1 24 44
M  V30 44 2 25 27
M  V30 45 1 25 45
M  V30 46 1 28 26
M  V30 47 1 26 46
M  V30 48 1 27 29
M  V30 49 1 27 47
M  V30 50 2 29 28
M  V30 51 1 28 48
M  V30 52 1 29 49
M  V30 END BOND
M  V30 END CTAB
M  END
