
  Chem3D Core 15.010061510393D

 28 29  0  0  0  0  0  0  0  0999 V2000
    0.2878   -2.3726   -2.1435 S   0  0  0  0  0  0  0  0  0  0  0  0
    1.1230   -3.5751   -2.0472 O   0  0  0  0  0  0  0  0  0  0  0  0
   -0.2570   -1.9424   -3.4349 O   0  0  0  0  0  0  0  0  0  0  0  0
    1.6964   -1.4404   -2.3653 N   0  0  0  0  0  0  0  0  0  0  0  0
    0.8541    0.5333   -1.7409 N   0  0  0  0  0  0  0  0  0  0  0  0
   -2.6296   -0.9013    2.5878 N   0  0  0  0  0  0  0  0  0  0  0  0
   -0.6266   -1.9337   -0.6718 C   0  0  0  0  0  0  0  0  0  0  0  0
   -1.9371   -1.6464   -0.7435 C   0  0  0  0  0  0  0  0  0  0  0  0
   -0.0023   -1.8688    0.5164 C   0  0  0  0  0  0  0  0  0  0  0  0
    1.7272   -0.1684   -2.3381 C   0  0  0  0  0  0  0  0  0  0  0  0
   -1.9890   -1.2323    1.5454 C   0  0  0  0  0  0  0  0  0  0  0  0
   -2.6163   -1.2957    0.3601 C   0  0  0  0  0  0  0  0  0  0  0  0
   -0.6800   -1.5205    1.6216 C   0  0  0  0  0  0  0  0  0  0  0  0
    2.7546    0.4227   -2.9786 C   0  0  0  0  0  0  0  0  0  0  0  0
    2.8586    1.7604   -2.9943 C   0  0  0  0  0  0  0  0  0  0  0  0
    1.9194    2.4741   -2.3586 C   0  0  0  0  0  0  0  0  0  0  0  0
    0.9379    1.7953   -1.7471 C   0  0  0  0  0  0  0  0  0  0  0  0
    2.4922   -1.9067   -2.8662 H   0  0  0  0  0  0  0  0  0  0  0  0
   -2.1402   -0.8514    3.5147 H   0  0  0  0  0  0  0  0  0  0  0  0
   -3.6528   -0.6758    2.5289 H   0  0  0  0  0  0  0  0  0  0  0  0
   -2.4707   -1.6936   -1.7075 H   0  0  0  0  0  0  0  0  0  0  0  0
    1.0742   -2.0955    0.5971 H   0  0  0  0  0  0  0  0  0  0  0  0
   -3.6918   -1.0618    0.2813 H   0  0  0  0  0  0  0  0  0  0  0  0
   -0.1496   -1.4709    2.5878 H   0  0  0  0  0  0  0  0  0  0  0  0
    3.5230   -0.1739   -3.4998 H   0  0  0  0  0  0  0  0  0  0  0  0
    3.6918    2.2602   -3.5147 H   0  0  0  0  0  0  0  0  0  0  0  0
    1.9536    3.5751   -2.3381 H   0  0  0  0  0  0  0  0  0  0  0  0
    0.1434    2.3392   -1.2085 H   0  0  0  0  0  0  0  0  0  0  0  0
  1  2  2  0      
  1  3  2  0      
  1  4  1  0      
  1  7  1  0      
  4 10  1  0      
  4 18  1  0      
 10  5  2  0      
  5 17  1  0      
  6 11  1  0      
  6 19  1  0      
  6 20  1  0      
  7  8  1  0      
  7  9  2  0      
  8 12  2  0      
  8 21  1  0      
 13  9  1  0      
  9 22  1  0      
 14 10  1  0      
 12 11  1  0      
 11 13  2  0      
 12 23  1  0      
 13 24  1  0      
 15 14  2  0      
 14 25  1  0      
 16 15  1  0      
 15 26  1  0      
 16 17  2  0      
 16 27  1  0      
 17 28  1  0      
M  END
