
  Chem3D Core 14.010291515493D

  0  0  0     0  0              0 V3000
M  V30 BEGIN CTAB
M  V30 COUNTS 42 44 0 0 0
M  V30 BEGIN ATOM
M  V30 1 C -0.904617 0.940649 0.741969 0
M  V30 2 C -1.917956 1.671319 1.258615 0
M  V30 3 C -1.413942 2.720163 1.935157 0
M  V30 4 C -0.083780 2.689005 1.769704 0
M  V30 5 C 0.225977 1.620783 1.017147 0
M  V30 6 C 0.850558 3.547533 2.201833 0
M  V30 7 C 2.129722 3.350218 1.844880 0
M  V30 8 C 2.441385 2.322745 1.038162 0
M  V30 9 C 1.496577 1.468705 0.610622 0
M  V30 10 C -1.105137 -0.192465 0.042365 0
M  V30 11 C -0.290247 -1.234820 -0.223677 0
M  V30 12 C -0.650711 -2.134521 -1.162360 0
M  V30 13 C 0.106195 -3.206037 -1.447249 0
M  V30 14 C 1.241882 -3.430908 -0.770105 0
M  V30 15 C 1.590354 -2.580041 0.206326 0
M  V30 16 C 0.825637 -1.510568 0.478124 0
M  V30 17 S 2.241638 -4.865732 -1.126428 0
M  V30 18 O 2.536476 -5.866884 -0.107954 0
M  V30 19 C 2.920355 -5.156096 -2.740206 0
M  V30 20 C -2.198515 3.758281 2.692503 0
M  V30 21 C -2.822689 4.753709 1.734361 0
M  V30 22 O -1.881052 5.494004 1.116876 0
M  V30 23 O -3.999951 4.906441 1.514183 0
M  V30 24 F 3.069847 4.190471 2.246908 0
M  V30 25 C -3.383508 1.329143 1.161136 0
M  V30 26 H 0.591824 4.420739 2.819765 0
M  V30 27 H 3.484658 2.194504 0.703591 0
M  V30 28 H 1.794192 0.685082 -0.101161 0
M  V30 29 H -2.131644 -0.311038 -0.350235 0
M  V30 30 H -1.578519 -2.002928 -1.746590 0
M  V30 31 H -0.217216 -3.902168 -2.239687 0
M  V30 32 H 2.490172 -2.770856 0.815562 0
M  V30 33 H 1.120599 -0.900013 1.346043 0
M  V30 34 H 2.638614 -4.325600 -3.425233 0
M  V30 35 H 4.030017 -5.214864 -2.681070 0
M  V30 36 H 2.526524 -6.112249 -3.151294 0
M  V30 37 H -2.990452 3.269707 3.303066 0
M  V30 38 H -1.567266 4.307411 3.425233 0
M  V30 39 H -2.324220 6.112249 0.513673 0
M  V30 40 H -4.030017 1.990369 1.775737 0
M  V30 41 H -3.733141 1.430224 0.108679 0
M  V30 42 H -3.571778 0.288837 1.510621 0
M  V30 END ATOM
M  V30 BEGIN BOND
M  V30 1 1 2 1
M  V30 2 1 5 1
M  V30 3 2 1 10
M  V30 4 2 2 3
M  V30 5 1 2 25
M  V30 6 1 3 4
M  V30 7 1 3 20
M  V30 8 2 4 5
M  V30 9 1 4 6
M  V30 10 1 9 5
M  V30 11 2 6 7
M  V30 12 1 6 26
M  V30 13 1 7 8
M  V30 14 1 7 24
M  V30 15 2 8 9
M  V30 16 1 8 27
M  V30 17 1 9 28
M  V30 18 1 10 11
M  V30 19 1 10 29
M  V30 20 1 11 12
M  V30 21 2 11 16
M  V30 22 2 12 13
M  V30 23 1 12 30
M  V30 24 1 13 14
M  V30 25 1 13 31
M  V30 26 2 14 15
M  V30 27 1 14 17
M  V30 28 1 15 16
M  V30 29 1 15 32
M  V30 30 1 16 33
M  V30 31 2 17 18
M  V30 32 1 17 19
M  V30 33 1 19 34
M  V30 34 1 19 35
M  V30 35 1 19 36
M  V30 36 1 20 21
M  V30 37 1 20 37
M  V30 38 1 20 38
M  V30 39 1 21 22
M  V30 40 2 21 23
M  V30 41 1 22 39
M  V30 42 1 25 40
M  V30 43 1 25 41
M  V30 44 1 25 42
M  V30 END BOND
M  V30 END CTAB
M  END
