
  Chem3D Core 14.010291515543D

  0  0  0     0  0              0 V3000
M  V30 BEGIN CTAB
M  V30 COUNTS 30 31 0 0 0
M  V30 BEGIN ATOM
M  V30 1 S -2.730697 -2.667367 1.177075 0
M  V30 2 O 0.200188 3.667693 -2.195732 0
M  V30 3 O 2.460587 3.841327 -2.269311 0
M  V30 4 O -3.308161 0.058358 1.959612 0
M  V30 5 C 1.306447 3.833649 -0.121785 0
M  V30 6 C 0.385033 2.728196 0.358075 0
M  V30 7 C 0.687401 1.435846 0.159922 0
M  V30 8 C -0.791556 3.001566 0.942796 0
M  V30 9 C -1.303623 0.712727 1.187139 0
M  V30 10 C 2.660960 3.780917 0.602189 0
M  V30 11 C -0.137557 0.455294 0.560842 0
M  V30 12 C -1.614439 2.018020 1.339620 0
M  V30 13 C 1.426962 3.787233 -1.640002 0
M  V30 14 C -2.181959 -0.255202 1.608047 0
M  V30 15 C -1.847901 -1.586599 1.662234 0
M  V30 16 C -0.621888 -2.072792 1.922788 0
M  V30 17 C -0.603166 -3.400302 1.768014 0
M  V30 18 C -1.808346 -3.791715 1.343277 0
M  V30 19 H -0.489903 3.601439 -1.515310 0
M  V30 20 H 0.854087 4.832475 0.098095 0
M  V30 21 H 1.619083 1.172483 -0.368473 0
M  V30 22 H -1.094558 4.050303 1.100373 0
M  V30 23 H 3.308161 4.640086 0.311411 0
M  V30 24 H 2.521701 3.830362 1.706718 0
M  V30 25 H 3.221881 2.847166 0.372758 0
M  V30 26 H 0.181890 -0.560811 0.287299 0
M  V30 27 H -2.554180 2.347294 1.814201 0
M  V30 28 H 0.252369 -1.503556 2.269311 0
M  V30 29 H 0.257341 -4.057057 1.953836 0
M  V30 30 H -2.083717 -4.832475 1.125018 0
M  V30 END ATOM
M  V30 BEGIN BOND
M  V30 1 1 15 1
M  V30 2 1 18 1
M  V30 3 1 2 13
M  V30 4 1 2 19
M  V30 5 2 3 13
M  V30 6 2 4 14
M  V30 7 1 5 6
M  V30 8 1 5 10
M  V30 9 1 5 13
M  V30 10 1 5 20
M  V30 11 1 6 7
M  V30 12 2 6 8
M  V30 13 2 7 11
M  V30 14 1 7 21
M  V30 15 1 12 8
M  V30 16 1 8 22
M  V30 17 1 11 9
M  V30 18 2 9 12
M  V30 19 1 9 14
M  V30 20 1 10 23
M  V30 21 1 10 24
M  V30 22 1 10 25
M  V30 23 1 11 26
M  V30 24 1 12 27
M  V30 25 1 14 15
M  V30 26 2 15 16
M  V30 27 1 16 17
M  V30 28 1 16 28
M  V30 29 2 17 18
M  V30 30 1 17 29
M  V30 31 1 18 30
M  V30 END BOND
M  V30 END CTAB
M  END
