
  Chem3D Core 14.010291516033D

  0  0  0     0  0              0 V3000
M  V30 BEGIN CTAB
M  V30 COUNTS 126 133 0 0 0
M  V30 BEGIN ATOM
M  V30 1 S -4.042133 3.427010 1.039932 0
M  V30 2 S 5.618791 1.719201 -1.522172 0
M  V30 3 S -1.079643 5.373090 -4.916695 0
M  V30 4 S 0.125445 1.505468 -5.415334 0
M  V30 5 S -6.294411 5.033183 -3.433569 0
M  V30 6 S 5.456859 2.168361 -6.821832 0
M  V30 7 O -5.613146 3.523698 1.551394 0
M  V30 8 O 6.412828 3.187843 -1.617694 0
M  V30 9 O 0.492290 5.573450 -5.399291 0
M  V30 10 O -1.477960 1.547998 -5.001400 0
M  V30 11 O -3.113971 4.463974 1.501266 0
M  V30 12 O -3.708473 2.061095 0.619151 0
M  V30 13 O 6.816775 0.923846 -1.246942 0
M  V30 14 O 4.877716 2.418280 -0.463602 0
M  V30 15 O -6.631616 6.668969 -3.361916 0
M  V30 16 O 7.103264 2.246077 -6.664506 0
M  V30 17 O -1.791440 6.581491 -4.484765 0
M  V30 18 O -1.751930 4.198797 -5.482696 0
M  V30 19 O 0.653267 0.338265 -6.127342 0
M  V30 20 O 0.674072 2.856445 -5.550083 0
M  V30 21 O -7.538601 4.560320 -2.822651 0
M  V30 22 O -6.219867 5.286090 -4.877676 0
M  V30 23 O 4.692360 3.414776 -6.938863 0
M  V30 24 O 5.010868 0.915931 -7.438680 0
M  V30 25 O -0.459876 2.254384 2.358780 0
M  V30 26 O 4.710381 -0.939120 0.581547 0
M  V30 27 O 5.548470 2.825502 4.783784 0
M  V30 28 O 6.080869 -7.003105 0.324770 0
M  V30 29 O 1.627003 -0.774288 1.366400 0
M  V30 30 N -1.079197 3.187941 0.512764 0
M  V30 31 N 3.356464 0.039668 -0.796357 0
M  V30 32 N 4.369844 3.252892 3.047148 0
M  V30 33 N 5.471813 -5.451601 -1.082917 0
M  V30 34 N 2.056393 -1.525196 3.432497 0
M  V30 35 N 2.356614 -2.843030 1.509709 0
M  V30 36 C -2.428596 3.974592 -1.295473 0
M  V30 37 C 3.358353 1.048588 -2.980346 0
M  V30 38 C -2.416476 4.442844 -2.580854 0
M  V30 39 C 2.614957 1.308415 -4.084878 0
M  V30 40 C -3.640984 3.899834 -0.662671 0
M  V30 41 C 4.687578 1.302579 -2.993543 0
M  V30 42 C -1.265850 4.616894 -3.282375 0
M  V30 43 C 1.261921 1.218024 -4.038238 0
M  V30 44 C -1.222547 3.648370 -0.747865 0
M  V30 45 C 2.746998 0.534006 -1.891094 0
M  V30 46 C -3.583573 4.744912 -3.187349 0
M  V30 47 C 3.278496 1.610138 -5.220491 0
M  V30 48 C -4.770634 4.635049 -2.586534 0
M  V30 49 C 4.613201 1.747764 -5.281446 0
M  V30 50 C -4.773545 4.223135 -1.317447 0
M  V30 51 C 5.303500 1.639694 -4.139062 0
M  V30 52 C -0.116356 4.203084 -2.733515 0
M  V30 53 C 0.674589 0.889453 -2.875575 0
M  V30 54 C -0.111473 3.699600 -1.499248 0
M  V30 55 C 1.408308 0.540380 -1.814919 0
M  V30 56 C -0.128485 3.011780 1.475599 0
M  V30 57 C 4.298535 -0.922145 -0.556397 0
M  V30 58 C 1.114333 3.579542 1.461135 0
M  V30 59 C 4.556239 -1.960881 -1.415088 0
M  V30 60 C 2.101519 3.111012 2.253276 0
M  V30 61 C 5.067325 -3.108064 -0.919792 0
M  V30 62 C 3.343344 3.627387 2.255986 0
M  V30 63 C 5.165745 -4.251671 -1.625174 0
M  V30 64 C 1.384034 4.686755 0.748679 0
M  V30 65 C 4.264012 -1.987910 -2.726908 0
M  V30 66 C 3.611505 4.680453 1.452443 0
M  V30 67 C 4.944302 -4.219265 -2.952640 0
M  V30 68 C 2.617542 5.206231 0.719356 0
M  V30 69 C 4.502799 -3.068585 -3.485426 0
M  V30 70 C 4.978639 5.335004 1.400716 0
M  V30 71 C 5.094511 -5.449281 -3.821313 0
M  V30 72 C 4.627741 2.436657 4.101651 0
M  V30 73 C 5.416001 -6.006973 0.165926 0
M  V30 74 C 3.866849 1.392983 4.538412 0
M  V30 75 C 4.752853 -5.404167 1.197488 0
M  V30 76 C 3.268177 0.525792 3.698073 0
M  V30 77 C 3.720672 -4.566802 0.982769 0
M  V30 78 C 2.599321 -0.541333 4.175327 0
M  V30 79 C 3.191750 -3.805123 1.956590 0
M  V30 80 C 3.774632 1.171904 5.865319 0
M  V30 81 C 5.106740 -5.634787 2.475693 0
M  V30 82 C 2.510931 -0.731370 5.502745 0
M  V30 83 C 3.591636 -4.024227 3.219422 0
M  V30 84 C 3.083695 0.131510 6.350176 0
M  V30 85 C 4.510347 -4.968261 3.476663 0
M  V30 86 C 1.965135 -1.672164 2.086031 0
M  V30 87 H -6.087284 2.723405 1.422390 0
M  V30 88 H 6.267726 3.675824 -0.828438 0
M  V30 89 H 0.910887 4.780530 -5.674874 0
M  V30 90 H -1.910002 2.338604 -5.265379 0
M  V30 91 H -6.755961 7.003105 -4.231025 0
M  V30 92 H 7.538601 1.489366 -7.010643 0
M  V30 93 H -1.975071 2.935111 0.872565 0
M  V30 94 H 2.788055 0.194859 0.022452 0
M  V30 95 H 5.155357 3.862398 2.877332 0
M  V30 96 H 5.722459 -6.114008 -1.800039 0
M  V30 97 H 1.757218 -2.296175 4.010580 0
M  V30 98 H 2.237522 -2.885930 0.508012 0
M  V30 99 H -3.646199 5.089136 -4.227906 0
M  V30 100 H 2.746779 1.759468 -6.171082 0
M  V30 101 H -5.760845 4.162932 -0.831773 0
M  V30 102 H 6.370111 1.918451 -4.133116 0
M  V30 103 H 0.842576 4.236662 -3.275928 0
M  V30 104 H -0.421539 0.833692 -2.772088 0
M  V30 105 H 0.855172 3.317020 -1.135449 0
M  V30 106 H 0.884090 0.201871 -0.906569 0
M  V30 107 H 1.884182 2.285454 2.939634 0
M  V30 108 H 5.372321 -3.157121 0.135150 0
M  V30 109 H 0.607394 5.231810 0.190675 0
M  V30 110 H 3.821928 -1.147101 -3.264227 0
M  V30 111 H 2.797466 6.107476 0.109521 0
M  V30 112 H 4.261769 -3.025031 -4.561411 0
M  V30 113 H 5.774677 4.589120 1.177637 0
M  V30 114 H 5.055266 6.112022 0.607963 0
M  V30 115 H 5.209560 5.832373 2.370291 0
M  V30 116 H 6.147358 -5.812277 -3.800913 0
M  V30 117 H 4.424247 -6.265633 -3.467781 0
M  V30 118 H 4.838125 -5.258815 -4.887229 0
M  V30 119 H 3.405940 0.638377 2.610810 0
M  V30 120 H 3.317218 -4.429315 -0.032947 0
M  V30 121 H 4.252088 1.837154 6.605021 0
M  V30 122 H 5.918872 -6.333212 2.738399 0
M  V30 123 H 1.984903 -1.609882 5.914670 0
M  V30 124 H 3.203787 -3.452791 4.073122 0
M  V30 125 H 3.015408 -0.033966 7.438680 0
M  V30 126 H 4.833952 -5.144781 4.517000 0
M  V30 END ATOM
M  V30 BEGIN BOND
M  V30 1 1 1 7
M  V30 2 2 1 11
M  V30 3 2 1 12
M  V30 4 1 1 40
M  V30 5 1 2 8
M  V30 6 2 2 13
M  V30 7 2 2 14
M  V30 8 1 2 41
M  V30 9 1 3 9
M  V30 10 2 3 17
M  V30 11 2 3 18
M  V30 12 1 3 42
M  V30 13 1 4 10
M  V30 14 2 4 19
M  V30 15 2 4 20
M  V30 16 1 4 43
M  V30 17 1 5 15
M  V30 18 2 5 21
M  V30 19 2 5 22
M  V30 20 1 5 48
M  V30 21 1 6 16
M  V30 22 2 6 23
M  V30 23 2 6 24
M  V30 24 1 6 49
M  V30 25 1 7 87
M  V30 26 1 8 88
M  V30 27 1 9 89
M  V30 28 1 10 90
M  V30 29 1 15 91
M  V30 30 1 16 92
M  V30 31 2 25 56
M  V30 32 2 26 57
M  V30 33 2 27 72
M  V30 34 2 28 73
M  V30 35 2 29 86
M  V30 36 1 30 44
M  V30 37 1 30 56
M  V30 38 1 30 93
M  V30 39 1 31 45
M  V30 40 1 31 57
M  V30 41 1 31 94
M  V30 42 1 32 62
M  V30 43 1 32 72
M  V30 44 1 32 95
M  V30 45 1 33 63
M  V30 46 1 33 73
M  V30 47 1 33 96
M  V30 48 1 34 78
M  V30 49 1 34 86
M  V30 50 1 34 97
M  V30 51 1 35 79
M  V30 52 1 35 86
M  V30 53 1 35 98
M  V30 54 1 36 38
M  V30 55 1 40 36
M  V30 56 2 36 44
M  V30 57 1 37 39
M  V30 58 1 41 37
M  V30 59 2 37 45
M  V30 60 2 42 38
M  V30 61 1 38 46
M  V30 62 2 43 39
M  V30 63 1 39 47
M  V30 64 2 50 40
M  V30 65 2 51 41
M  V30 66 1 52 42
M  V30 67 1 53 43
M  V30 68 1 44 54
M  V30 69 1 45 55
M  V30 70 2 48 46
M  V30 71 1 46 99
M  V30 72 2 49 47
M  V30 73 1 47 100
M  V30 74 1 48 50
M  V30 75 1 49 51
M  V30 76 1 50 101
M  V30 77 1 51 102
M  V30 78 2 54 52
M  V30 79 1 52 103
M  V30 80 2 55 53
M  V30 81 1 53 104
M  V30 82 1 54 105
M  V30 83 1 55 106
M  V30 84 1 56 58
M  V30 85 1 57 59
M  V30 86 1 58 60
M  V30 87 2 58 64
M  V30 88 1 59 61
M  V30 89 2 59 65
M  V30 90 2 60 62
M  V30 91 1 60 107
M  V30 92 2 61 63
M  V30 93 1 61 108
M  V30 94 1 62 66
M  V30 95 1 63 67
M  V30 96 1 68 64
M  V30 97 1 64 109
M  V30 98 1 69 65
M  V30 99 1 65 110
M  V30 100 2 66 68
M  V30 101 1 66 70
M  V30 102 2 67 69
M  V30 103 1 67 71
M  V30 104 1 68 111
M  V30 105 1 69 112
M  V30 106 1 70 113
M  V30 107 1 70 114
M  V30 108 1 70 115
M  V30 109 1 71 116
M  V30 110 1 71 117
M  V30 111 1 71 118
M  V30 112 1 72 74
M  V30 113 1 73 75
M  V30 114 1 74 76
M  V30 115 2 74 80
M  V30 116 1 75 77
M  V30 117 2 75 81
M  V30 118 2 76 78
M  V30 119 1 76 119
M  V30 120 2 77 79
M  V30 121 1 77 120
M  V30 122 1 78 82
M  V30 123 1 79 83
M  V30 124 1 84 80
M  V30 125 1 80 121
M  V30 126 1 85 81
M  V30 127 1 81 122
M  V30 128 2 82 84
M  V30 129 1 82 123
M  V30 130 2 83 85
M  V30 131 1 83 124
M  V30 132 1 84 125
M  V30 133 1 85 126
M  V30 END BOND
M  V30 END CTAB
M  END
