
  Chem3D Core 14.010291516043D

  0  0  0     0  0              0 V3000
M  V30 BEGIN CTAB
M  V30 COUNTS 55 59 0 0 0
M  V30 BEGIN ATOM
M  V30 1 C -5.848371 0.374551 -3.309838 0
M  V30 2 C -3.653967 2.161807 0.663189 0
M  V30 3 C -3.480878 1.093877 -3.190025 0
M  V30 4 C 4.702012 -1.681678 3.888758 0
M  V30 5 C -2.270175 1.103558 -2.613362 0
M  V30 6 C 3.435949 -2.100494 3.711115 0
M  V30 7 C -1.611851 1.936469 2.149605 0
M  V30 8 C 0.844569 -0.034295 0.089074 0
M  V30 9 C 1.205538 0.786604 -0.896820 0
M  V30 10 C -1.031364 1.391095 3.464364 0
M  V30 11 C -1.307490 -1.209055 3.128733 0
M  V30 12 C -2.773331 -0.907751 2.784266 0
M  V30 13 C -4.252539 -0.233913 -1.489947 0
M  V30 14 C 4.023501 0.562909 3.922134 0
M  V30 15 C -4.492145 0.401917 -2.646919 0
M  V30 16 C -2.947941 1.295903 1.723900 0
M  V30 17 C 4.991781 -0.369520 3.992921 0
M  V30 18 C -3.051321 -0.183958 -0.880248 0
M  V30 19 C 2.769786 0.132429 3.744715 0
M  V30 20 C -2.003122 0.449821 -1.460523 0
M  V30 21 C 2.482663 -1.164124 3.642649 0
M  V30 22 C -2.977336 -0.837495 0.312641 0
M  V30 23 C 0.759693 -0.158545 3.473136 0
M  V30 24 Cl 6.630784 0.128613 4.219714 0
M  V30 25 N -0.400483 -0.205396 -0.028443 0
M  V30 26 N 0.152159 1.038288 -1.543997 0
M  V30 27 N 1.662142 0.725967 3.638625 0
M  V30 28 N -0.493927 0.013279 3.343770 0
M  V30 29 N -2.879385 -0.164758 1.520013 0
M  V30 30 N -0.801349 0.438059 -1.013497 0
M  V30 31 O -3.210623 -2.026630 0.303394 0
M  V30 32 O 1.274498 -1.286670 3.485435 0
M  V30 33 H -3.636133 1.449598 2.598057 0
M  V30 34 H -6.630784 -0.087011 -2.667069 0
M  V30 35 H -6.187966 1.407610 -3.550661 0
M  V30 36 H -5.797634 -0.209975 -4.256606 0
M  V30 37 H -3.012990 2.363766 -0.219972 0
M  V30 38 H -4.621693 1.717124 0.339205 0
M  V30 39 H -3.902749 3.169972 1.068788 0
M  V30 40 H -3.641691 1.634640 -4.137906 0
M  V30 41 H 5.504056 -2.436972 3.947502 0
M  V30 42 H -1.493807 1.660642 -3.164819 0
M  V30 43 H 3.187870 -3.169972 3.623786 0
M  V30 44 H -1.784364 3.032105 2.289859 0
M  V30 45 H -0.857693 1.855284 1.337489 0
M  V30 46 H 1.478185 -0.488938 0.856838 0
M  V30 47 H 2.202644 1.173203 -1.135632 0
M  V30 48 H -0.271807 2.116007 3.836519 0
M  V30 49 H -1.815152 1.397819 4.256606 0
M  V30 50 H -1.286741 -1.825907 4.060093 0
M  V30 51 H -0.886683 -1.824267 2.297617 0
M  V30 52 H -3.355908 -1.856286 2.743911 0
M  V30 53 H -3.247674 -0.367599 3.634103 0
M  V30 54 H -5.090236 -0.778127 -1.020475 0
M  V30 55 H 4.234241 1.640836 4.003741 0
M  V30 END ATOM
M  V30 BEGIN BOND
M  V30 1 1 15 1
M  V30 2 1 1 34
M  V30 3 1 1 35
M  V30 4 1 1 36
M  V30 5 1 16 2
M  V30 6 1 2 37
M  V30 7 1 2 38
M  V30 8 1 2 39
M  V30 9 1 3 5
M  V30 10 2 3 15
M  V30 11 1 3 40
M  V30 12 2 4 6
M  V30 13 1 17 4
M  V30 14 1 4 41
M  V30 15 2 5 20
M  V30 16 1 5 42
M  V30 17 1 6 21
M  V30 18 1 6 43
M  V30 19 1 10 7
M  V30 20 1 7 16
M  V30 21 1 7 44
M  V30 22 1 7 45
M  V30 23 1 8 9
M  V30 24 2 25 8
M  V30 25 1 8 46
M  V30 26 2 9 26
M  V30 27 1 9 47
M  V30 28 1 28 10
M  V30 29 1 10 48
M  V30 30 1 10 49
M  V30 31 1 12 11
M  V30 32 1 28 11
M  V30 33 1 11 50
M  V30 34 1 11 51
M  V30 35 1 29 12
M  V30 36 1 12 52
M  V30 37 1 12 53
M  V30 38 1 13 15
M  V30 39 2 18 13
M  V30 40 1 13 54
M  V30 41 2 17 14
M  V30 42 1 19 14
M  V30 43 1 14 55
M  V30 44 1 16 29
M  V30 45 1 16 33
M  V30 46 1 24 17
M  V30 47 1 20 18
M  V30 48 1 22 18
M  V30 49 2 21 19
M  V30 50 1 27 19
M  V30 51 1 30 20
M  V30 52 1 21 32
M  V30 53 1 29 22
M  V30 54 2 31 22
M  V30 55 2 23 27
M  V30 56 1 28 23
M  V30 57 1 32 23
M  V30 58 1 25 30
M  V30 59 1 26 30
M  V30 END BOND
M  V30 END CTAB
M  END
