
  Chem3D Core 14.010291516083D

  0  0  0     0  0              0 V3000
M  V30 BEGIN CTAB
M  V30 COUNTS 48 53 0 0 0
M  V30 BEGIN ATOM
M  V30 1 O 3.830784 1.865428 -3.051556 0
M  V30 2 O -0.400460 4.255451 -0.982405 0
M  V30 3 O -2.606596 1.767715 2.242039 0
M  V30 4 O -4.551208 2.695853 1.665535 0
M  V30 5 N 0.402419 2.342437 -1.911223 0
M  V30 6 N -1.761984 -0.603364 -2.465895 0
M  V30 7 N 2.985557 3.427991 -1.656567 0
M  V30 8 C 1.542261 1.594788 -2.441234 0
M  V30 9 C -0.905097 1.745048 -2.229911 0
M  V30 10 C 1.627918 0.188392 -1.825687 0
M  V30 11 C -0.828153 0.238678 -2.273229 0
M  V30 12 C 0.300967 -0.457789 -2.069722 0
M  V30 13 C 2.896845 2.297254 -2.417822 0
M  V30 14 C -0.019419 -1.754845 -2.161256 0
M  V30 15 C 0.530503 3.529703 -1.238811 0
M  V30 16 C -1.956568 2.030326 -1.170188 0
M  V30 17 C 1.931472 3.869074 -0.758965 0
M  V30 18 C -1.334938 -1.796171 -2.411237 0
M  V30 19 C 0.702451 -2.875851 -2.050012 0
M  V30 20 C -1.718120 1.717753 0.119053 0
M  V30 21 C -3.140019 2.584465 -1.505169 0
M  V30 22 C -1.980945 -2.958238 -2.556218 0
M  V30 23 C 4.234385 4.178985 -1.575538 0
M  V30 24 C -2.659108 1.980390 1.033901 0
M  V30 25 C 0.060179 -4.048213 -2.196234 0
M  V30 26 C -4.085763 2.846975 -0.586908 0
M  V30 27 C -1.262170 -4.089137 -2.445168 0
M  V30 28 C -3.824876 2.536575 0.688399 0
M  V30 29 C -3.840453 2.213824 2.807470 0
M  V30 30 H 1.355411 1.475941 -3.540616 0
M  V30 31 H -2.760199 -0.344728 -2.641570 0
M  V30 32 H -1.221112 2.111816 -3.234274 0
M  V30 33 H 2.440059 -0.410656 -2.297461 0
M  V30 34 H 1.815259 0.255004 -0.729186 0
M  V30 35 H 2.074325 3.373896 0.230358 0
M  V30 36 H 1.976136 4.971378 -0.600060 0
M  V30 37 H 1.783553 -2.840721 -1.843412 0
M  V30 38 H -0.765461 1.257701 0.426236 0
M  V30 39 H -3.347161 2.836733 -2.558339 0
M  V30 40 H -3.063208 -2.983151 -2.759332 0
M  V30 41 H 4.525481 4.547748 -2.585398 0
M  V30 42 H 4.168750 5.064179 -0.905622 0
M  V30 43 H 5.047363 3.529073 -1.178840 0
M  V30 44 H 0.626985 -4.990657 -2.108918 0
M  V30 45 H -5.047363 3.303140 -0.871359 0
M  V30 46 H -1.765340 -5.064179 -2.559601 0
M  V30 47 H -4.385907 1.368008 3.286784 0
M  V30 48 H -3.666010 3.035154 3.540616 0
M  V30 END ATOM
M  V30 BEGIN BOND
M  V30 1 2 1 13
M  V30 2 2 2 15
M  V30 3 1 24 3
M  V30 4 1 3 29
M  V30 5 1 4 28
M  V30 6 1 29 4
M  V30 7 1 5 8
M  V30 8 1 5 9
M  V30 9 1 5 15
M  V30 10 1 6 11
M  V30 11 1 6 18
M  V30 12 1 6 31
M  V30 13 1 7 13
M  V30 14 1 7 17
M  V30 15 1 7 23
M  V30 16 1 8 10
M  V30 17 1 8 13
M  V30 18 1 8 30
M  V30 19 1 9 11
M  V30 20 1 9 16
M  V30 21 1 9 32
M  V30 22 1 10 12
M  V30 23 1 10 33
M  V30 24 1 10 34
M  V30 25 2 11 12
M  V30 26 1 12 14
M  V30 27 1 14 18
M  V30 28 2 14 19
M  V30 29 1 15 17
M  V30 30 2 16 20
M  V30 31 1 21 16
M  V30 32 1 17 35
M  V30 33 1 17 36
M  V30 34 2 18 22
M  V30 35 1 19 25
M  V30 36 1 19 37
M  V30 37 1 20 24
M  V30 38 1 20 38
M  V30 39 2 21 26
M  V30 40 1 21 39
M  V30 41 1 22 27
M  V30 42 1 22 40
M  V30 43 1 23 41
M  V30 44 1 23 42
M  V30 45 1 23 43
M  V30 46 2 24 28
M  V30 47 2 25 27
M  V30 48 1 25 44
M  V30 49 1 28 26
M  V30 50 1 26 45
M  V30 51 1 27 46
M  V30 52 1 29 47
M  V30 53 1 29 48
M  V30 END BOND
M  V30 END CTAB
M  END
