
  Chem3D Core 15.008171512303D

 58 61  0  0  0  0  0  0  0  0999 V2000
    4.7098   -0.3505    3.6092 Cl  0  0  0  0  0  0  0  0  0  0  0  0
   -6.7236    1.9838   -2.8961 O   0  0  0  0  0  0  0  0  0  0  0  0
   -0.2096    0.1143   -0.6605 O   0  0  0  0  0  0  0  0  0  0  0  0
    1.6742   -2.7110   -0.4977 O   0  0  0  0  0  0  0  0  0  0  0  0
   -4.3122    2.1137   -1.5156 N   0  0  0  0  0  0  0  0  0  0  0  0
   -0.1267    1.7778    1.7882 N   0  0  0  0  0  0  0  0  0  0  0  0
    3.1570   -0.9302    0.7446 N   0  0  0  0  0  0  0  0  0  0  0  0
    1.6365    0.4033    1.3641 N   0  0  0  0  0  0  0  0  0  0  0  0
    1.5249    1.6699    3.1399 N   0  0  0  0  0  0  0  0  0  0  0  0
    2.4435   -2.9690   -2.5101 N   0  0  0  0  0  0  0  0  0  0  0  0
   -5.4370    3.0023   -1.1193 C   0  0  0  0  0  0  0  0  0  0  0  0
   -4.4253    1.2523   -2.7227 C   0  0  0  0  0  0  0  0  0  0  0  0
   -6.4952    3.1842   -2.2065 C   0  0  0  0  0  0  0  0  0  0  0  0
   -5.5903    1.6217   -3.6397 C   0  0  0  0  0  0  0  0  0  0  0  0
   -3.2795    2.0183   -0.7576 C   0  0  0  0  0  0  0  0  0  0  0  0
   -2.2430    1.1896   -1.0032 C   0  0  0  0  0  0  0  0  0  0  0  0
   -3.1348    2.7171    0.3848 C   0  0  0  0  0  0  0  0  0  0  0  0
   -1.1182    1.0628   -0.2651 C   0  0  0  0  0  0  0  0  0  0  0  0
   -1.0415    1.7491    0.8976 C   0  0  0  0  0  0  0  0  0  0  0  0
   -2.0625    2.5825    1.1781 C   0  0  0  0  0  0  0  0  0  0  0  0
    1.0068    1.2577    2.0561 C   0  0  0  0  0  0  0  0  0  0  0  0
    0.7339    0.5983   -1.5929 C   0  0  0  0  0  0  0  0  0  0  0  0
    4.1384   -1.6265    0.3215 C   0  0  0  0  0  0  0  0  0  0  0  0
    2.7749   -0.1005    1.6378 C   0  0  0  0  0  0  0  0  0  0  0  0
    3.9199   -2.5233   -0.6770 C   0  0  0  0  0  0  0  0  0  0  0  0
    3.3316    0.3083    2.7981 C   0  0  0  0  0  0  0  0  0  0  0  0
    5.4090   -1.4607    0.7325 C   0  0  0  0  0  0  0  0  0  0  0  0
    2.6458    1.2211    3.5048 C   0  0  0  0  0  0  0  0  0  0  0  0
    4.9520   -3.2419   -1.1626 C   0  0  0  0  0  0  0  0  0  0  0  0
    6.4335   -2.1719    0.2410 C   0  0  0  0  0  0  0  0  0  0  0  0
    2.6736   -2.7880   -1.1736 C   0  0  0  0  0  0  0  0  0  0  0  0
    6.2032   -3.0798   -0.7130 C   0  0  0  0  0  0  0  0  0  0  0  0
    3.3964   -2.7501   -3.5999 C   0  0  0  0  0  0  0  0  0  0  0  0
   -0.3820    2.4462    2.5626 H   0  0  0  0  0  0  0  0  0  0  0  0
    2.3336   -1.0935    0.1084 H   0  0  0  0  0  0  0  0  0  0  0  0
    1.4730   -3.1799   -2.7398 H   0  0  0  0  0  0  0  0  0  0  0  0
   -5.0821    4.0323   -0.8760 H   0  0  0  0  0  0  0  0  0  0  0  0
   -5.9368    2.5569   -0.2245 H   0  0  0  0  0  0  0  0  0  0  0  0
   -3.5127    1.3182   -3.3626 H   0  0  0  0  0  0  0  0  0  0  0  0
   -4.5745    0.1967   -2.3876 H   0  0  0  0  0  0  0  0  0  0  0  0
   -6.2005    3.9753   -2.9343 H   0  0  0  0  0  0  0  0  0  0  0  0
   -7.4629    3.5097   -1.7580 H   0  0  0  0  0  0  0  0  0  0  0  0
   -5.8679    0.7557   -4.2852 H   0  0  0  0  0  0  0  0  0  0  0  0
   -5.3199    2.4564   -4.3271 H   0  0  0  0  0  0  0  0  0  0  0  0
   -2.2622    0.5263   -1.8819 H   0  0  0  0  0  0  0  0  0  0  0  0
   -3.8956    3.4235    0.7516 H   0  0  0  0  0  0  0  0  0  0  0  0
   -2.0601    3.1957    2.0987 H   0  0  0  0  0  0  0  0  0  0  0  0
    0.2228    0.8955   -2.5355 H   0  0  0  0  0  0  0  0  0  0  0  0
    1.2846    1.4675   -1.1698 H   0  0  0  0  0  0  0  0  0  0  0  0
    1.4554   -0.2167   -1.8193 H   0  0  0  0  0  0  0  0  0  0  0  0
    5.6898   -0.6719    1.4357 H   0  0  0  0  0  0  0  0  0  0  0  0
    2.9985    1.5878    4.4844 H   0  0  0  0  0  0  0  0  0  0  0  0
    4.8047   -4.0323   -1.9154 H   0  0  0  0  0  0  0  0  0  0  0  0
    7.4629   -1.9948    0.5957 H   0  0  0  0  0  0  0  0  0  0  0  0
    7.0321   -3.6815   -1.1218 H   0  0  0  0  0  0  0  0  0  0  0  0
    3.8835   -3.7033   -3.9030 H   0  0  0  0  0  0  0  0  0  0  0  0
    2.8289   -2.3825   -4.4844 H   0  0  0  0  0  0  0  0  0  0  0  0
    4.1502   -1.9689   -3.3562 H   0  0  0  0  0  0  0  0  0  0  0  0
  1 26  1  0      
 13  2  1  0      
  2 14  1  0      
  3 18  1  0      
  3 22  1  0      
  4 31  2  0      
  5 11  1  0      
  5 12  1  0      
  5 15  1  0      
  6 19  1  0      
  6 21  1  0      
  6 34  1  0      
  7 23  1  0      
  7 24  1  0      
  7 35  1  0      
  8 21  2  0      
 24  8  1  0      
 21  9  1  0      
 28  9  2  0      
 10 31  1  0      
 10 33  1  0      
 10 36  1  0      
 11 13  1  0      
 11 37  1  0      
 11 38  1  0      
 14 12  1  0      
 12 39  1  0      
 12 40  1  0      
 13 41  1  0      
 13 42  1  0      
 14 43  1  0      
 14 44  1  0      
 15 16  1  0      
 15 17  2  0      
 16 18  2  0      
 16 45  1  0      
 20 17  1  0      
 17 46  1  0      
 18 19  1  0      
 19 20  2  0      
 20 47  1  0      
 22 48  1  0      
 22 49  1  0      
 22 50  1  0      
 23 25  1  0      
 23 27  2  0      
 26 24  2  0      
 25 29  2  0      
 25 31  1  0      
 28 26  1  0      
 30 27  1  0      
 27 51  1  0      
 28 52  1  0      
 29 32  1  0      
 29 53  1  0      
 32 30  2  0      
 30 54  1  0      
 32 55  1  0      
 33 56  1  0      
 33 57  1  0      
 33 58  1  0      
M  END
