
  Chem3D Core 15.010021516443D

 66 67  0  0  0  0  0  0  0  0999 V2000
   -2.3803    1.0995   -5.4544 F   0  0  0  0  0  0  0  0  0  0  0  0
   -1.2586   -0.6426   -6.0131 F   0  0  0  0  0  0  0  0  0  0  0  0
   -0.7221   -1.3238   -0.0824 O   0  0  0  0  0  0  0  0  0  0  0  0
    2.0566   -0.7076    0.3437 O   0  0  0  0  0  0  0  0  0  0  0  0
   -2.9503   -2.2080   -4.3544 O   0  0  0  0  0  0  0  0  0  0  0  0
    6.1841    4.7881    3.2060 O   0  0  0  0  0  0  0  0  0  0  0  0
    6.9307    4.8294    1.0829 O   0  0  0  0  0  0  0  0  0  0  0  0
    0.4359   -0.6684   -2.0767 C   0  0  0  0  0  0  0  0  0  0  0  0
    1.9714   -0.7971   -2.0779 C   0  0  0  0  0  0  0  0  0  0  0  0
   -0.0728   -1.8397   -1.2208 C   0  0  0  0  0  0  0  0  0  0  0  0
    2.2542   -1.5456   -0.7725 C   0  0  0  0  0  0  0  0  0  0  0  0
    1.1660   -2.6140   -0.7686 C   0  0  0  0  0  0  0  0  0  0  0  0
   -0.1915   -0.6860   -3.4468 C   0  0  0  0  0  0  0  0  0  0  0  0
   -2.0540   -0.1385   -5.0602 C   0  0  0  0  0  0  0  0  0  0  0  0
    2.7155    0.5341   -2.2530 C   0  0  0  0  0  0  0  0  0  0  0  0
   -1.3392   -0.0532   -3.7336 C   0  0  0  0  0  0  0  0  0  0  0  0
   -3.2883   -0.9740   -4.9377 C   0  0  0  0  0  0  0  0  0  0  0  0
    4.2066    0.3117   -2.3078 C   0  0  0  0  0  0  0  0  0  0  0  0
   -3.9388   -3.1170   -4.0674 C   0  0  0  0  0  0  0  0  0  0  0  0
    5.1077    0.5815   -1.3491 C   0  0  0  0  0  0  0  0  0  0  0  0
   -3.6113   -4.2163   -3.3590 C   0  0  0  0  0  0  0  0  0  0  0  0
   -5.2379   -2.9917   -4.4083 C   0  0  0  0  0  0  0  0  0  0  0  0
   -4.5102   -5.1532   -3.0218 C   0  0  0  0  0  0  0  0  0  0  0  0
   -6.1518   -3.9193   -4.0806 C   0  0  0  0  0  0  0  0  0  0  0  0
    4.8450    1.1724    0.0138 C   0  0  0  0  0  0  0  0  0  0  0  0
   -5.7917   -5.0078   -3.3861 C   0  0  0  0  0  0  0  0  0  0  0  0
    5.6802    2.4428    0.2439 C   0  0  0  0  0  0  0  0  0  0  0  0
    6.2503    4.2937    1.9334 C   0  0  0  0  0  0  0  0  0  0  0  0
    5.4230    3.0470    1.6369 C   0  0  0  0  0  0  0  0  0  0  0  0
    5.4480    4.2065    4.2439 C   0  0  0  0  0  0  0  0  0  0  0  0
    6.3313    3.2359    5.0309 C   0  0  0  0  0  0  0  0  0  0  0  0
    4.9508    5.3297    5.1592 C   0  0  0  0  0  0  0  0  0  0  0  0
   -1.5788   -0.9748   -0.3386 H   0  0  0  0  0  0  0  0  0  0  0  0
    1.1246   -0.6998    0.5795 H   0  0  0  0  0  0  0  0  0  0  0  0
    0.1670    0.2936   -1.5769 H   0  0  0  0  0  0  0  0  0  0  0  0
    2.2738   -1.4797   -2.9121 H   0  0  0  0  0  0  0  0  0  0  0  0
   -0.8047   -2.4953   -1.7433 H   0  0  0  0  0  0  0  0  0  0  0  0
    3.2842   -1.9621   -0.7174 H   0  0  0  0  0  0  0  0  0  0  0  0
    1.4136   -3.4048   -1.5162 H   0  0  0  0  0  0  0  0  0  0  0  0
    1.0438   -3.1045    0.2230 H   0  0  0  0  0  0  0  0  0  0  0  0
    0.2914   -1.3133   -4.2124 H   0  0  0  0  0  0  0  0  0  0  0  0
    2.4004    1.0136   -3.2099 H   0  0  0  0  0  0  0  0  0  0  0  0
    2.4273    1.2486   -1.4535 H   0  0  0  0  0  0  0  0  0  0  0  0
   -1.8365    0.5349   -2.9441 H   0  0  0  0  0  0  0  0  0  0  0  0
   -3.7366   -1.1391   -5.9447 H   0  0  0  0  0  0  0  0  0  0  0  0
   -4.0188   -0.4535   -4.2742 H   0  0  0  0  0  0  0  0  0  0  0  0
    4.5772   -0.1511   -3.2405 H   0  0  0  0  0  0  0  0  0  0  0  0
    6.1639    0.3321   -1.5569 H   0  0  0  0  0  0  0  0  0  0  0  0
   -2.5621   -4.3526   -3.0441 H   0  0  0  0  0  0  0  0  0  0  0  0
   -5.5951   -2.1176   -4.9752 H   0  0  0  0  0  0  0  0  0  0  0  0
   -4.1977   -6.0393   -2.4442 H   0  0  0  0  0  0  0  0  0  0  0  0
   -7.2055   -3.7870   -4.3799 H   0  0  0  0  0  0  0  0  0  0  0  0
    3.7721    1.4154    0.1676 H   0  0  0  0  0  0  0  0  0  0  0  0
    5.1113    0.4009    0.7746 H   0  0  0  0  0  0  0  0  0  0  0  0
   -6.5399   -5.7703   -3.1135 H   0  0  0  0  0  0  0  0  0  0  0  0
    6.7647    2.1972    0.1420 H   0  0  0  0  0  0  0  0  0  0  0  0
    5.4243    3.1904   -0.5452 H   0  0  0  0  0  0  0  0  0  0  0  0
    4.3425    3.3196    1.6955 H   0  0  0  0  0  0  0  0  0  0  0  0
    5.6528    2.2557    2.3866 H   0  0  0  0  0  0  0  0  0  0  0  0
    4.5432    3.6860    3.8584 H   0  0  0  0  0  0  0  0  0  0  0  0
    5.7597    2.7587    5.8595 H   0  0  0  0  0  0  0  0  0  0  0  0
    6.7290    2.4187    4.3890 H   0  0  0  0  0  0  0  0  0  0  0  0
    7.2055    3.7605    5.4795 H   0  0  0  0  0  0  0  0  0  0  0  0
    4.3611    4.9243    6.0131 H   0  0  0  0  0  0  0  0  0  0  0  0
    4.2934    6.0393    4.6056 H   0  0  0  0  0  0  0  0  0  0  0  0
    5.8011    5.9141    5.5792 H   0  0  0  0  0  0  0  0  0  0  0  0
  1 14  1  0      
  2 14  1  0      
 10  3  1  0      
  3 33  1  0      
 11  4  1  0      
  4 34  1  0      
  5 17  1  0      
  5 19  1  0      
  6 28  1  0      
  6 30  1  0      
  7 28  2  0      
  8  9  1  0      
  8 10  1  0      
  8 13  1  0      
  8 35  1  0      
  9 11  1  0      
  9 15  1  0      
  9 36  1  0      
 12 10  1  0      
 10 37  1  0      
 11 12  1  0      
 11 38  1  0      
 12 39  1  0      
 12 40  1  0      
 13 16  2  0      
 13 41  1  0      
 14 16  1  0      
 14 17  1  0      
 15 18  1  0      
 15 42  1  0      
 15 43  1  0      
 16 44  1  0      
 17 45  1  0      
 17 46  1  0      
 18 20  2  0      
 18 47  1  0      
 19 21  1  0      
 19 22  2  0      
 20 25  1  0      
 20 48  1  0      
 21 23  2  0      
 21 49  1  0      
 24 22  1  0      
 22 50  1  0      
 23 26  1  0      
 23 51  1  0      
 26 24  2  0      
 24 52  1  0      
 25 27  1  0      
 25 53  1  0      
 25 54  1  0      
 26 55  1  0      
 27 29  1  0      
 27 56  1  0      
 27 57  1  0      
 28 29  1  0      
 29 58  1  0      
 29 59  1  0      
 30 31  1  0      
 30 32  1  0      
 30 60  1  0      
 31 61  1  0      
 31 62  1  0      
 31 63  1  0      
 32 64  1  0      
 32 65  1  0      
 32 66  1  0      
M  END
