
  Chem3D Core 15.003181615023D

 72 75  0  0  0  0  0  0  0  0999 V2000
   -6.2276   -0.5288   -1.9483 O   0  0  0  0  0  0  0  0  0  0  0  0
   -5.2730    0.1481   -1.6430 C   0  0  0  0  0  0  0  0  0  0  0  0
   -4.1751   -0.4029   -1.0440 C   0  0  0  0  0  0  0  0  0  0  0  0
   -4.0766   -1.5347   -0.4595 N   0  0  0  0  0  0  0  0  0  0  0  0
   -5.2241   -2.4464   -0.2551 C   0  0  0  0  0  0  0  0  0  0  0  0
   -2.9170    0.0975   -1.0509 C   0  0  0  0  0  0  0  0  0  0  0  0
   -2.4901    1.2624   -1.6125 O   0  0  0  0  0  0  0  0  0  0  0  0
   -1.6676    1.1455   -2.7530 C   0  0  0  0  0  0  0  0  0  0  0  0
   -2.4646    1.1615   -3.9905 C   0  0  0  0  0  0  0  0  0  0  0  0
   -3.1767    2.2482   -4.1014 F   0  0  0  0  0  0  0  0  0  0  0  0
   -1.6989    1.0998   -5.0448 F   0  0  0  0  0  0  0  0  0  0  0  0
   -3.2793    0.1465   -4.0502 F   0  0  0  0  0  0  0  0  0  0  0  0
   -2.1668   -0.7689   -0.3430 C   0  0  0  0  0  0  0  0  0  0  0  0
   -2.9240   -1.8157   -0.0066 C   0  0  0  0  0  0  0  0  0  0  0  0
   -2.4067   -2.8575    0.6530 C   0  0  0  0  0  0  0  0  0  0  0  0
   -1.1076   -2.8454    1.0018 C   0  0  0  0  0  0  0  0  0  0  0  0
   -0.4649   -4.0298    1.7034 C   0  0  0  0  0  0  0  0  0  0  0  0
   -1.2941   -5.3187    1.8129 C   0  0  0  0  0  0  0  0  0  0  0  0
   -0.3460   -1.7597    0.6976 N   0  0  0  0  0  0  0  0  0  0  0  0
    1.0833   -1.6761    1.0622 C   0  0  0  0  0  0  0  0  0  0  0  0
    1.9851   -1.9845   -0.1476 C   0  0  0  0  0  0  0  0  0  0  0  0
    3.3224   -1.7008   -0.1125 C   0  0  0  0  0  0  0  0  0  0  0  0
    3.9204   -1.1742    0.9749 C   0  0  0  0  0  0  0  0  0  0  0  0
    5.2359   -0.9041    0.9865 C   0  0  0  0  0  0  0  0  0  0  0  0
    5.9885   -1.1574   -0.0932 C   0  0  0  0  0  0  0  0  0  0  0  0
    5.4127   -1.6854   -1.1821 C   0  0  0  0  0  0  0  0  0  0  0  0
    4.0971   -1.9536   -1.1877 C   0  0  0  0  0  0  0  0  0  0  0  0
    1.4425   -2.4946   -1.1079 O   0  0  0  0  0  0  0  0  0  0  0  0
   -0.8539   -0.6917   -0.0125 C   0  0  0  0  0  0  0  0  0  0  0  0
   -0.1615    0.2512   -0.3140 O   0  0  0  0  0  0  0  0  0  0  0  0
   -5.4596    1.4793   -1.8986 N   0  0  0  0  0  0  0  0  0  0  0  0
   -4.9463    2.6314   -1.1351 C   0  0  0  0  0  0  0  0  0  0  0  0
   -5.9380    3.7964   -1.3468 C   0  0  0  0  0  0  0  0  0  0  0  0
   -5.5101    5.0518   -0.5722 C   0  0  0  0  0  0  0  0  0  0  0  0
   -5.4149    4.7292    0.8503 N   0  0  0  0  0  0  0  0  0  0  0  0
   -6.2347    5.3023    1.8006 C   0  0  0  0  0  0  0  0  0  0  0  0
   -6.0326    4.8326    3.2410 C   0  0  0  0  0  0  0  0  0  0  0  0
   -6.9295    5.4521    4.1573 O   0  0  0  0  0  0  0  0  0  0  0  0
   -7.0689    6.1290    1.5170 O   0  0  0  0  0  0  0  0  0  0  0  0
   -4.4134    3.6955    1.1085 C   0  0  0  0  0  0  0  0  0  0  0  0
   -4.8132    2.4011    0.3825 C   0  0  0  0  0  0  0  0  0  0  0  0
   -5.0522   -3.1996    0.5419 H   0  0  0  0  0  0  0  0  0  0  0  0
   -6.1236   -1.8964    0.1025 H   0  0  0  0  0  0  0  0  0  0  0  0
   -5.4511   -3.0077   -1.1901 H   0  0  0  0  0  0  0  0  0  0  0  0
   -0.9778    2.0223   -2.7482 H   0  0  0  0  0  0  0  0  0  0  0  0
   -1.0481    0.2223   -2.7052 H   0  0  0  0  0  0  0  0  0  0  0  0
   -3.0372   -3.7220    0.8928 H   0  0  0  0  0  0  0  0  0  0  0  0
    0.4666   -4.3062    1.1519 H   0  0  0  0  0  0  0  0  0  0  0  0
   -0.1957   -3.7192    2.7418 H   0  0  0  0  0  0  0  0  0  0  0  0
   -0.6985   -6.1290    2.2942 H   0  0  0  0  0  0  0  0  0  0  0  0
   -2.2020   -5.1787    2.4429 H   0  0  0  0  0  0  0  0  0  0  0  0
   -1.6025   -5.6943    0.8101 H   0  0  0  0  0  0  0  0  0  0  0  0
    1.2828   -0.6596    1.4706 H   0  0  0  0  0  0  0  0  0  0  0  0
    1.3605   -2.3627    1.8897 H   0  0  0  0  0  0  0  0  0  0  0  0
    3.3734   -0.9486    1.9030 H   0  0  0  0  0  0  0  0  0  0  0  0
    5.7048   -0.4750    1.8884 H   0  0  0  0  0  0  0  0  0  0  0  0
    7.0689   -0.9372   -0.0845 H   0  0  0  0  0  0  0  0  0  0  0  0
    6.0254   -1.8993   -2.0744 H   0  0  0  0  0  0  0  0  0  0  0  0
    3.6872   -2.3865   -2.1156 H   0  0  0  0  0  0  0  0  0  0  0  0
   -6.2157    1.6589   -2.5587 H   0  0  0  0  0  0  0  0  0  0  0  0
   -3.9905    2.9995   -1.5693 H   0  0  0  0  0  0  0  0  0  0  0  0
   -6.0140    4.0356   -2.4351 H   0  0  0  0  0  0  0  0  0  0  0  0
   -6.9560    3.4872   -1.0086 H   0  0  0  0  0  0  0  0  0  0  0  0
   -6.2282    5.8763   -0.7806 H   0  0  0  0  0  0  0  0  0  0  0  0
   -4.5217    5.4137   -0.9403 H   0  0  0  0  0  0  0  0  0  0  0  0
   -6.2197    3.7381    3.3207 H   0  0  0  0  0  0  0  0  0  0  0  0
   -5.0080    5.0900    3.5912 H   0  0  0  0  0  0  0  0  0  0  0  0
   -6.7613    5.1261    5.0448 H   0  0  0  0  0  0  0  0  0  0  0  0
   -4.2614    3.4801    2.1872 H   0  0  0  0  0  0  0  0  0  0  0  0
   -3.4200    4.0433    0.7392 H   0  0  0  0  0  0  0  0  0  0  0  0
   -5.7843    2.0321    0.7899 H   0  0  0  0  0  0  0  0  0  0  0  0
   -4.0498    1.6260    0.6148 H   0  0  0  0  0  0  0  0  0  0  0  0
  1  2  2  0      
  2  3  1  0      
  2 31  1  0      
  4  3  1  0      
  6  3  2  0      
  4  5  1  0      
 14  4  1  0      
  5 42  1  0      
  5 43  1  0      
  5 44  1  0      
  6  7  1  0      
 13  6  1  0      
  7  8  1  0      
  8  9  1  0      
  8 45  1  0      
  8 46  1  0      
  9 10  1  0      
  9 11  1  0      
  9 12  1  0      
 13 14  2  0      
 29 13  1  0      
 14 15  1  0      
 16 15  2  0      
 15 47  1  0      
 16 17  1  0      
 19 16  1  0      
 17 18  1  0      
 17 48  1  0      
 17 49  1  0      
 18 50  1  0      
 18 51  1  0      
 18 52  1  0      
 19 20  1  0      
 29 19  1  0      
 20 21  1  0      
 20 53  1  0      
 20 54  1  0      
 21 22  1  0      
 21 28  2  0      
 22 23  1  0      
 22 27  2  0      
 23 24  2  0      
 23 55  1  0      
 24 25  1  0      
 24 56  1  0      
 25 26  2  0      
 25 57  1  0      
 26 27  1  0      
 26 58  1  0      
 27 59  1  0      
 29 30  2  0      
 31 32  1  0      
 31 60  1  0      
 33 32  1  0      
 32 41  1  0      
 32 61  1  0      
 34 33  1  0      
 33 62  1  0      
 33 63  1  0      
 35 34  1  0      
 34 64  1  0      
 34 65  1  0      
 35 36  1  0      
 35 40  1  0      
 36 37  1  0      
 36 39  2  0      
 37 38  1  0      
 37 66  1  0      
 37 67  1  0      
 38 68  1  0      
 41 40  1  0      
 40 69  1  0      
 40 70  1  0      
 41 71  1  0      
 41 72  1  0      
M  END
