
  Chem3D Core 15.010151511003D

 42 46  0  0  0  0  0  0  0  0999 V2000
   -4.0459   -0.0555    1.2542 C   0  0  0  0  0  0  0  0  0  0  0  0
   -3.2685   -0.9350    1.9453 N   0  0  0  0  0  0  0  0  0  0  0  0
   -1.9592   -1.1322    1.6776 N   0  0  0  0  0  0  0  0  0  0  0  0
   -1.3883   -0.4169    0.8084 C   0  0  0  0  0  0  0  0  0  0  0  0
   -2.0682    0.5131    0.1138 C   0  0  0  0  0  0  0  0  0  0  0  0
   -1.4324    1.2620   -0.8083 C   0  0  0  0  0  0  0  0  0  0  0  0
   -2.1264    2.1301   -1.5636 C   0  0  0  0  0  0  0  0  0  0  0  0
   -3.4461    2.2857   -1.3861 C   0  0  0  0  0  0  0  0  0  0  0  0
   -4.0705    1.5679   -0.4405 C   0  0  0  0  0  0  0  0  0  0  0  0
   -3.3930    0.6811    0.3124 C   0  0  0  0  0  0  0  0  0  0  0  0
    0.0555   -0.7503    0.5224 C   0  0  0  0  0  0  0  0  0  0  0  0
    0.7593    0.4070   -0.1950 C   0  0  0  0  0  0  0  0  0  0  0  0
   -0.1787    1.2022   -1.0046 N   0  0  0  0  0  0  0  0  0  0  0  0
   -5.2216    0.0043    1.5220 O   0  0  0  0  0  0  0  0  0  0  0  0
    1.0070   -0.7122    2.8986 N   0  0  0  0  0  0  0  0  0  0  0  0
    1.7738   -1.4017    3.5764 N   0  0  0  0  0  0  0  0  0  0  0  0
    2.0881   -2.3392    2.7867 C   0  0  0  0  0  0  0  0  0  0  0  0
    1.5414   -2.2473    1.6495 N   0  0  0  0  0  0  0  0  0  0  0  0
    0.8403   -1.1952    1.7333 C   0  0  0  0  0  0  0  0  0  0  0  0
    0.3320    0.5185    3.3426 C   0  0  0  0  0  0  0  0  0  0  0  0
    1.9112   -0.0726   -1.0519 C   0  0  0  0  0  0  0  0  0  0  0  0
    3.1720   -0.0532   -0.5837 C   0  0  0  0  0  0  0  0  0  0  0  0
    4.1948   -0.4866   -1.3366 C   0  0  0  0  0  0  0  0  0  0  0  0
    3.9737   -0.9517   -2.5756 C   0  0  0  0  0  0  0  0  0  0  0  0
    2.7185   -0.9813   -3.0490 C   0  0  0  0  0  0  0  0  0  0  0  0
    1.6987   -0.5476   -2.2922 C   0  0  0  0  0  0  0  0  0  0  0  0
    4.9804   -1.3809   -3.3194 F   0  0  0  0  0  0  0  0  0  0  0  0
   -4.1203    3.1517   -2.1270 F   0  0  0  0  0  0  0  0  0  0  0  0
   -3.7443   -1.4699    2.6545 H   0  0  0  0  0  0  0  0  0  0  0  0
   -1.6217    2.7444   -2.3289 H   0  0  0  0  0  0  0  0  0  0  0  0
   -5.1542    1.7278   -0.3159 H   0  0  0  0  0  0  0  0  0  0  0  0
   -0.0145   -1.6037   -0.1990 H   0  0  0  0  0  0  0  0  0  0  0  0
    1.1368    1.1462    0.5515 H   0  0  0  0  0  0  0  0  0  0  0  0
    0.2181    1.8211   -1.7536 H   0  0  0  0  0  0  0  0  0  0  0  0
    2.7739   -3.1517    3.0603 H   0  0  0  0  0  0  0  0  0  0  0  0
    1.0629    1.1822    3.8580 H   0  0  0  0  0  0  0  0  0  0  0  0
   -0.1142    1.1071    2.5134 H   0  0  0  0  0  0  0  0  0  0  0  0
   -0.4775    0.2628    4.0636 H   0  0  0  0  0  0  0  0  0  0  0  0
    3.3763    0.3183    0.4343 H   0  0  0  0  0  0  0  0  0  0  0  0
    5.2216   -0.4634   -0.9352 H   0  0  0  0  0  0  0  0  0  0  0  0
    2.5249   -1.3676   -4.0636 H   0  0  0  0  0  0  0  0  0  0  0  0
    0.6752   -0.5906   -2.6999 H   0  0  0  0  0  0  0  0  0  0  0  0
  1  2  1  0      
 10  1  1  0      
  1 14  2  0      
  2  3  1  0      
  2 29  1  0      
  3  4  2  0      
  4  5  1  0      
  4 11  1  0      
  6  5  2  0      
 10  5  1  0      
  6  7  1  0      
 13  6  1  0      
  7  8  2  0      
  7 30  1  0      
  8  9  1  0      
  8 28  1  0      
  9 10  2  0      
  9 31  1  0      
 12 11  1  0      
 11 19  1  0      
 11 32  1  0      
 12 13  1  0      
 12 21  1  0      
 12 33  1  0      
 13 34  1  0      
 15 16  1  0      
 15 19  1  0      
 15 20  1  0      
 16 17  2  0      
 17 18  1  0      
 17 35  1  0      
 18 19  2  0      
 20 36  1  0      
 20 37  1  0      
 20 38  1  0      
 21 22  1  0      
 21 26  2  0      
 22 23  2  0      
 22 39  1  0      
 23 24  1  0      
 23 40  1  0      
 24 25  2  0      
 24 27  1  0      
 25 26  1  0      
 25 41  1  0      
 26 42  1  0      
M  END
