
  Chem3D Core 15.003181615213D

 66 69  0  0  0  0  0  0  0  0999 V2000
    4.1899   -1.1783    3.3712 Cl  0  0  0  0  0  0  0  0  0  0  0  0
    5.9282    4.5125   -5.0831 F   0  0  0  0  0  0  0  0  0  0  0  0
    1.7022    2.0354    4.2209 O   0  0  0  0  0  0  0  0  0  0  0  0
   -2.5663    0.1830    3.4225 O   0  0  0  0  0  0  0  0  0  0  0  0
   -4.0830   -2.7220    3.8457 O   0  0  0  0  0  0  0  0  0  0  0  0
   -0.2430   -3.4441    3.0675 N   0  0  0  0  0  0  0  0  0  0  0  0
    3.2968    1.5402    2.7370 N   0  0  0  0  0  0  0  0  0  0  0  0
    3.7069    3.4548    0.6593 N   0  0  0  0  0  0  0  0  0  0  0  0
   -5.0415   -0.8180    3.2529 N   0  0  0  0  0  0  0  0  0  0  0  0
   -0.2458   -1.3792    3.3314 C   0  0  0  0  0  0  0  0  0  0  0  0
    0.5404   -2.4564    3.1698 C   0  0  0  0  0  0  0  0  0  0  0  0
   -1.5352   -1.7994    3.3125 C   0  0  0  0  0  0  0  0  0  0  0  0
    1.7029   -0.0652    3.4410 C   0  0  0  0  0  0  0  0  0  0  0  0
    0.3568   -0.1867    3.4786 C   0  0  0  0  0  0  0  0  0  0  0  0
    2.4568   -1.1769    3.2799 C   0  0  0  0  0  0  0  0  0  0  0  0
    2.2485    1.1838    3.5562 C   0  0  0  0  0  0  0  0  0  0  0  0
    1.8752   -2.3814    3.1495 C   0  0  0  0  0  0  0  0  0  0  0  0
   -1.4688   -3.1359    3.1412 C   0  0  0  0  0  0  0  0  0  0  0  0
   -2.6631   -1.0291    3.4209 C   0  0  0  0  0  0  0  0  0  0  0  0
    4.1562    2.6992    2.9687 C   0  0  0  0  0  0  0  0  0  0  0  0
   -3.9143   -1.5658    3.5228 C   0  0  0  0  0  0  0  0  0  0  0  0
    3.4045    1.0954    1.3474 C   0  0  0  0  0  0  0  0  0  0  0  0
    2.9092    2.2441    0.4374 C   0  0  0  0  0  0  0  0  0  0  0  0
    3.6777    3.8472    2.0668 C   0  0  0  0  0  0  0  0  0  0  0  0
    0.2239   -4.8274    2.8736 C   0  0  0  0  0  0  0  0  0  0  0  0
    3.3083    4.5796   -0.1868 C   0  0  0  0  0  0  0  0  0  0  0  0
    4.3577    3.1313    4.4313 C   0  0  0  0  0  0  0  0  0  0  0  0
    4.0231    4.5608   -1.5257 C   0  0  0  0  0  0  0  0  0  0  0  0
    2.9374    1.7577   -1.0236 C   0  0  0  0  0  0  0  0  0  0  0  0
   -5.0689    0.3561    2.3826 C   0  0  0  0  0  0  0  0  0  0  0  0
   -6.3580   -1.2300    3.7325 C   0  0  0  0  0  0  0  0  0  0  0  0
    5.3501    4.3491   -1.5967 C   0  0  0  0  0  0  0  0  0  0  0  0
    3.3517    4.7713   -2.6724 C   0  0  0  0  0  0  0  0  0  0  0  0
    5.9857    4.3305   -2.7784 C   0  0  0  0  0  0  0  0  0  0  0  0
    3.9825    4.7536   -3.8567 C   0  0  0  0  0  0  0  0  0  0  0  0
    5.3041    4.5304   -3.9166 C   0  0  0  0  0  0  0  0  0  0  0  0
   -0.2479    0.7202    3.6080 H   0  0  0  0  0  0  0  0  0  0  0  0
    2.4774   -3.2984    3.0467 H   0  0  0  0  0  0  0  0  0  0  0  0
   -2.2337   -3.9101    3.0367 H   0  0  0  0  0  0  0  0  0  0  0  0
    5.1851    2.4126    2.6256 H   0  0  0  0  0  0  0  0  0  0  0  0
    2.7869    0.1924    1.1442 H   0  0  0  0  0  0  0  0  0  0  0  0
    4.4576    0.8336    1.0930 H   0  0  0  0  0  0  0  0  0  0  0  0
    1.8419    2.4531    0.7046 H   0  0  0  0  0  0  0  0  0  0  0  0
    2.6503    4.1592    2.3700 H   0  0  0  0  0  0  0  0  0  0  0  0
    4.3576    4.7168    2.2361 H   0  0  0  0  0  0  0  0  0  0  0  0
    0.8215   -4.9086    1.9369 H   0  0  0  0  0  0  0  0  0  0  0  0
    0.8522   -5.1493    3.7353 H   0  0  0  0  0  0  0  0  0  0  0  0
   -0.6168   -5.5523    2.7906 H   0  0  0  0  0  0  0  0  0  0  0  0
    3.6224    5.5523    0.2629 H   0  0  0  0  0  0  0  0  0  0  0  0
    2.2004    4.6358   -0.2835 H   0  0  0  0  0  0  0  0  0  0  0  0
    3.4850    3.6796    4.8474 H   0  0  0  0  0  0  0  0  0  0  0  0
    5.2218    3.8295    4.5209 H   0  0  0  0  0  0  0  0  0  0  0  0
    4.5726    2.2536    5.0831 H   0  0  0  0  0  0  0  0  0  0  0  0
    3.9825    1.6395   -1.3898 H   0  0  0  0  0  0  0  0  0  0  0  0
    2.4322    0.7712   -1.1322 H   0  0  0  0  0  0  0  0  0  0  0  0
    2.3932    2.4454   -1.7068 H   0  0  0  0  0  0  0  0  0  0  0  0
   -4.9564    1.2914    2.9763 H   0  0  0  0  0  0  0  0  0  0  0  0
   -4.2891    0.3003    1.5900 H   0  0  0  0  0  0  0  0  0  0  0  0
   -6.0333    0.4238    1.8305 H   0  0  0  0  0  0  0  0  0  0  0  0
   -6.2965   -1.6220    4.7731 H   0  0  0  0  0  0  0  0  0  0  0  0
   -7.0732   -0.3778    3.7661 H   0  0  0  0  0  0  0  0  0  0  0  0
   -6.7782   -2.0203    3.0696 H   0  0  0  0  0  0  0  0  0  0  0  0
    5.9330    4.1880   -0.6749 H   0  0  0  0  0  0  0  0  0  0  0  0
    2.2655    4.9588   -2.6484 H   0  0  0  0  0  0  0  0  0  0  0  0
    7.0732    4.1520   -2.8153 H   0  0  0  0  0  0  0  0  0  0  0  0
    3.4132    4.9238   -4.7857 H   0  0  0  0  0  0  0  0  0  0  0  0
  1 15  1  0      
  2 36  1  0      
  3 16  2  0      
  4 19  2  0      
  5 21  2  0      
 11  6  1  0      
  6 18  1  0      
  6 25  1  0      
  7 16  1  0      
  7 20  1  0      
  7 22  1  0      
  8 23  1  0      
 24  8  1  0      
  8 26  1  0      
  9 21  1  0      
  9 30  1  0      
  9 31  1  0      
 11 10  2  0      
 12 10  1  0      
 10 14  1  0      
 17 11  1  0      
 18 12  2  0      
 12 19  1  0      
 13 14  2  0      
 13 15  1  0      
 13 16  1  0      
 14 37  1  0      
 15 17  2  0      
 17 38  1  0      
 18 39  1  0      
 19 21  1  0      
 20 24  1  0      
 20 27  1  0      
 20 40  1  0      
 23 22  1  0      
 22 41  1  0      
 22 42  1  0      
 23 29  1  0      
 23 43  1  0      
 24 44  1  0      
 24 45  1  0      
 25 46  1  0      
 25 47  1  0      
 25 48  1  0      
 26 28  1  0      
 26 49  1  0      
 26 50  1  0      
 27 51  1  0      
 27 52  1  0      
 27 53  1  0      
 28 32  1  0      
 28 33  2  0      
 29 54  1  0      
 29 55  1  0      
 29 56  1  0      
 30 57  1  0      
 30 58  1  0      
 30 59  1  0      
 31 60  1  0      
 31 61  1  0      
 31 62  1  0      
 32 34  2  0      
 32 63  1  0      
 35 33  1  0      
 33 64  1  0      
 34 36  1  0      
 34 65  1  0      
 36 35  2  0      
 35 66  1  0      
M  END
