
  Chem3D Core 14.010291516133D

  0  0  0     0  0              0 V3000
M  V30 BEGIN CTAB
M  V30 COUNTS 51 53 0 0 0
M  V30 BEGIN ATOM
M  V30 1 O -3.958288 0.346302 2.525957 0
M  V30 2 O -0.244082 -5.713478 1.815362 0
M  V30 3 O -2.377373 -6.127574 1.460034 0
M  V30 4 N -1.953502 1.011173 2.009262 0
M  V30 5 C 1.620259 3.973730 0.963674 0
M  V30 6 C 2.636974 1.966912 -1.069571 0
M  V30 7 C 2.644135 4.321898 -0.134774 0
M  V30 8 C 3.498819 3.113772 -0.506783 0
M  V30 9 C 0.925831 2.638784 0.682748 0
M  V30 10 C 1.383344 1.743317 -0.222291 0
M  V30 11 C 0.616529 5.152174 1.002916 0
M  V30 12 C 2.318806 3.881545 2.338524 0
M  V30 13 C 3.546298 0.713984 -1.090547 0
M  V30 14 C 2.202949 2.279781 -2.518691 0
M  V30 15 C -0.176632 2.324283 1.391943 0
M  V30 16 C 0.665879 0.620242 -0.417498 0
M  V30 17 C -0.861049 1.179133 1.236690 0
M  V30 18 C -0.439706 0.336734 0.283853 0
M  V30 19 C -2.832595 0.001538 2.253525 0
M  V30 20 C -2.497618 -1.312758 2.105794 0
M  V30 21 C -3.444132 -2.241218 1.873283 0
M  V30 22 C -1.230643 -1.744308 2.243407 0
M  V30 23 C -3.129076 -3.539332 1.732835 0
M  V30 24 C -0.914587 -3.042375 2.106095 0
M  V30 25 C -1.856506 -3.966433 1.840552 0
M  V30 26 C -1.529900 -5.286537 1.698894 0
M  V30 27 H 0.355978 -4.979278 2.009327 0
M  V30 28 H -2.179761 1.874721 2.478957 0
M  V30 29 H 2.119647 4.684732 -1.048360 0
M  V30 30 H 3.297071 5.163538 0.196284 0
M  V30 31 H 4.050471 2.771909 0.398885 0
M  V30 32 H 4.279307 3.411033 -1.246197 0
M  V30 33 H -0.001988 5.184655 0.076996 0
M  V30 34 H -0.078551 5.116550 1.869372 0
M  V30 35 H 1.147788 6.127574 1.086528 0
M  V30 36 H 1.588304 3.736590 3.165689 0
M  V30 37 H 3.031201 3.028754 2.389326 0
M  V30 38 H 2.886569 4.810967 2.569639 0
M  V30 39 H 3.791902 0.377556 -0.057366 0
M  V30 40 H 3.098228 -0.150755 -1.626075 0
M  V30 41 H 4.507248 0.925727 -1.612435 0
M  V30 42 H 1.672014 1.420969 -2.987016 0
M  V30 43 H 1.510182 3.148523 -2.569903 0
M  V30 44 H 3.079932 2.507562 -3.165689 0
M  V30 45 H -0.544402 3.026145 2.156933 0
M  V30 46 H 0.963986 -0.106807 -1.189207 0
M  V30 47 H -0.993867 -0.582028 0.037310 0
M  V30 48 H -4.507248 -1.964039 1.769925 0
M  V30 49 H -0.414162 -1.051718 2.507586 0
M  V30 50 H -3.960410 -4.234372 1.526733 0
M  V30 51 H 0.146652 -3.308301 2.235866 0
M  V30 END ATOM
M  V30 BEGIN BOND
M  V30 1 2 1 19
M  V30 2 1 2 26
M  V30 3 1 2 27
M  V30 4 2 3 26
M  V30 5 1 4 17
M  V30 6 1 4 19
M  V30 7 1 4 28
M  V30 8 1 7 5
M  V30 9 1 5 9
M  V30 10 1 5 11
M  V30 11 1 5 12
M  V30 12 1 6 8
M  V30 13 1 10 6
M  V30 14 1 6 13
M  V30 15 1 6 14
M  V30 16 1 7 8
M  V30 17 1 7 29
M  V30 18 1 7 30
M  V30 19 1 8 31
M  V30 20 1 8 32
M  V30 21 2 9 10
M  V30 22 1 9 15
M  V30 23 1 16 10
M  V30 24 1 11 33
M  V30 25 1 11 34
M  V30 26 1 11 35
M  V30 27 1 12 36
M  V30 28 1 12 37
M  V30 29 1 12 38
M  V30 30 1 13 39
M  V30 31 1 13 40
M  V30 32 1 13 41
M  V30 33 1 14 42
M  V30 34 1 14 43
M  V30 35 1 14 44
M  V30 36 2 15 17
M  V30 37 1 15 45
M  V30 38 2 18 16
M  V30 39 1 16 46
M  V30 40 1 17 18
M  V30 41 1 18 47
M  V30 42 1 19 20
M  V30 43 1 20 21
M  V30 44 2 20 22
M  V30 45 2 21 23
M  V30 46 1 21 48
M  V30 47 1 24 22
M  V30 48 1 22 49
M  V30 49 1 23 25
M  V30 50 1 23 50
M  V30 51 2 25 24
M  V30 52 1 24 51
M  V30 53 1 25 26
M  V30 END BOND
M  V30 END CTAB
M  END
