
  Chem3D Core 14.010291516183D

  0  0  0     0  0              0 V3000
M  V30 BEGIN CTAB
M  V30 COUNTS 57 59 0 0 0
M  V30 BEGIN ATOM
M  V30 1 O -1.496194 -2.463938 1.483508 0
M  V30 2 N -4.878713 -3.876147 0.994010 0
M  V30 3 C 2.246827 1.273877 -0.100417 0
M  V30 4 C 3.573991 1.015679 0.082335 0
M  V30 5 C 1.311665 0.361207 0.277924 0
M  V30 6 C 4.479479 2.164078 0.551206 0
M  V30 7 C 1.837033 2.487223 -0.552237 0
M  V30 8 C 4.093913 -0.235620 -0.042580 0
M  V30 9 C 1.533930 -0.542860 1.253886 0
M  V30 10 C 0.092905 0.291129 -0.296101 0
M  V30 11 C 5.716361 2.472274 -0.311599 0
M  V30 12 C -0.604846 -1.515297 1.042971 0
M  V30 13 C 0.607800 -1.441666 1.620542 0
M  V30 14 C -0.831263 -0.611208 0.071336 0
M  V30 15 C 0.702990 3.083072 -0.124790 0
M  V30 16 C 2.551180 3.165056 -1.473546 0
M  V30 17 C 5.276088 -0.594723 0.502173 0
M  V30 18 C 3.475357 -1.195894 -0.765714 0
M  V30 19 C -3.592887 -3.596912 1.627852 0
M  V30 20 C -2.794517 -2.479496 0.947083 0
M  V30 21 C 0.311467 4.284996 -0.577309 0
M  V30 22 C 2.173324 4.365749 -1.939101 0
M  V30 23 C 5.791465 -1.827547 0.370032 0
M  V30 24 C 3.975311 -2.433328 -0.910722 0
M  V30 25 C 1.047394 4.935331 -1.488787 0
M  V30 26 C 5.139864 -2.760185 -0.336291 0
M  V30 27 C -5.524828 -5.013633 1.635491 0
M  V30 28 C -5.766159 -2.722447 1.005739 0
M  V30 29 H 3.912620 3.112130 0.693863 0
M  V30 30 H 4.803955 1.936954 1.594123 0
M  V30 31 H 2.476556 -0.553319 1.826577 0
M  V30 32 H -0.178561 0.952815 -1.136943 0
M  V30 33 H 6.320571 3.284329 0.155472 0
M  V30 34 H 6.396809 1.604382 -0.442426 0
M  V30 35 H 5.456904 2.820045 -1.333475 0
M  V30 36 H 0.844724 -2.145339 2.437674 0
M  V30 37 H -1.790728 -0.593676 -0.470041 0
M  V30 38 H 0.072682 2.626459 0.657372 0
M  V30 39 H 3.450894 2.718103 -1.921835 0
M  V30 40 H 5.867917 0.095767 1.122216 0
M  V30 41 H 2.541264 -0.997725 -1.316760 0
M  V30 42 H -2.965276 -4.521163 1.590664 0
M  V30 43 H -3.730601 -3.343448 2.706353 0
M  V30 44 H -3.269183 -1.490372 1.142048 0
M  V30 45 H -2.736919 -2.685781 -0.147357 0
M  V30 46 H -0.612353 4.747899 -0.190713 0
M  V30 47 H 2.778050 4.878061 -2.706353 0
M  V30 48 H 6.752754 -2.081218 0.848744 0
M  V30 49 H 3.438106 -3.181509 -1.518181 0
M  V30 50 H 0.728869 5.921061 -1.866096 0
M  V30 51 H 5.559273 -3.773082 -0.452154 0
M  V30 52 H -6.475377 -5.276689 1.117130 0
M  V30 53 H -4.880310 -5.921061 1.585144 0
M  V30 54 H -5.757319 -4.808996 2.705809 0
M  V30 55 H -6.752754 -2.973852 0.553383 0
M  V30 56 H -5.360385 -1.889967 0.389206 0
M  V30 57 H -5.944235 -2.347660 2.039627 0
M  V30 END ATOM
M  V30 BEGIN BOND
M  V30 1 1 1 12
M  V30 2 1 1 20
M  V30 3 1 2 19
M  V30 4 1 2 27
M  V30 5 1 2 28
M  V30 6 2 3 4
M  V30 7 1 3 5
M  V30 8 1 3 7
M  V30 9 1 4 6
M  V30 10 1 4 8
M  V30 11 1 5 9
M  V30 12 2 5 10
M  V30 13 1 6 11
M  V30 14 1 6 29
M  V30 15 1 6 30
M  V30 16 1 7 15
M  V30 17 2 7 16
M  V30 18 1 8 17
M  V30 19 2 8 18
M  V30 20 2 9 13
M  V30 21 1 9 31
M  V30 22 1 14 10
M  V30 23 1 10 32
M  V30 24 1 11 33
M  V30 25 1 11 34
M  V30 26 1 11 35
M  V30 27 1 13 12
M  V30 28 2 12 14
M  V30 29 1 13 36
M  V30 30 1 14 37
M  V30 31 2 15 21
M  V30 32 1 15 38
M  V30 33 1 22 16
M  V30 34 1 16 39
M  V30 35 2 17 23
M  V30 36 1 17 40
M  V30 37 1 24 18
M  V30 38 1 18 41
M  V30 39 1 19 20
M  V30 40 1 19 42
M  V30 41 1 19 43
M  V30 42 1 20 44
M  V30 43 1 20 45
M  V30 44 1 21 25
M  V30 45 1 21 46
M  V30 46 2 25 22
M  V30 47 1 22 47
M  V30 48 1 23 26
M  V30 49 1 23 48
M  V30 50 2 26 24
M  V30 51 1 24 49
M  V30 52 1 25 50
M  V30 53 1 26 51
M  V30 54 1 27 52
M  V30 55 1 27 53
M  V30 56 1 27 54
M  V30 57 1 28 55
M  V30 58 1 28 56
M  V30 59 1 28 57
M  V30 END BOND
M  V30 END CTAB
M  END
