
  Chem3D Core 14.010291516243D

  0  0  0     0  0              0 V3000
M  V30 BEGIN CTAB
M  V30 COUNTS 56 57 0 0 0
M  V30 BEGIN ATOM
M  V30 1 S -4.892816 -1.519427 -0.632149 0
M  V30 2 O 1.833829 -0.031099 -1.805309 0
M  V30 3 O -5.917988 -0.598556 2.046354 0
M  V30 4 O -4.024952 -1.686323 -1.792105 0
M  V30 5 O -6.255796 -2.030883 -0.573449 0
M  V30 6 O 4.423855 -0.452454 -1.684010 0
M  V30 7 N -1.224090 1.898714 -1.228238 0
M  V30 8 N -4.040263 -2.066391 0.733940 0
M  V30 9 C -1.622035 3.219151 -0.731030 0
M  V30 10 C -3.151594 3.345320 -0.887532 0
M  V30 11 C -3.897360 2.295260 -0.090398 0
M  V30 12 C -1.188691 3.447878 0.726048 0
M  V30 13 C 0.208862 1.609800 -1.210307 0
M  V30 14 C -4.081762 1.054391 -0.569046 0
M  V30 15 C -4.728305 0.104938 0.131006 0
M  V30 16 C -4.415799 2.573392 1.114984 0
M  V30 17 C 0.461343 0.253686 -1.872759 0
M  V30 18 C -5.230382 0.373216 1.359223 0
M  V30 19 C -5.073965 1.634515 1.809750 0
M  V30 20 C 2.313741 -1.198091 -2.357512 0
M  V30 21 C 3.651697 -1.415201 -2.295891 0
M  V30 22 C 1.537156 -2.126094 -2.953972 0
M  V30 23 C -6.782724 -0.224731 3.092118 0
M  V30 24 C 4.145189 -2.549952 -2.833189 0
M  V30 25 C 2.042066 -3.249222 -3.482436 0
M  V30 26 C 3.360888 -3.463505 -3.421408 0
M  V30 27 C 5.814727 -0.624970 -1.606019 0
M  V30 28 C 6.414345 0.583377 -0.890444 0
M  V30 29 H -1.717290 1.169648 -0.653654 0
M  V30 30 H -4.673280 -2.200190 1.521175 0
M  V30 31 H -3.351862 -1.387170 1.055156 0
M  V30 32 H -1.143053 4.001160 -1.372461 0
M  V30 33 H -3.478166 4.367225 -0.584180 0
M  V30 34 H -3.428774 3.253167 -1.964435 0
M  V30 35 H -1.637182 4.382167 1.133927 0
M  V30 36 H -0.085309 3.562522 0.818194 0
M  V30 37 H -1.499973 2.603404 1.381592 0
M  V30 38 H 0.770726 2.406457 -1.752876 0
M  V30 39 H 0.577011 1.567418 -0.158934 0
M  V30 40 H -3.684936 0.828400 -1.572040 0
M  V30 41 H -4.302944 3.583980 1.541651 0
M  V30 42 H 0.142131 0.303101 -2.940152 0
M  V30 43 H -0.109174 -0.533658 -1.326052 0
M  V30 44 H -5.476789 1.939668 2.788458 0
M  V30 45 H 0.446041 -1.998147 -3.031276 0
M  V30 46 H -7.334715 -1.135497 3.415703 0
M  V30 47 H -6.201222 0.149765 3.963388 0
M  V30 48 H -7.521531 0.525228 2.731338 0
M  V30 49 H 5.223096 -2.774266 -2.810096 0
M  V30 50 H 1.381677 -3.990212 -3.963388 0
M  V30 51 H 3.793699 -4.382167 -3.851805 0
M  V30 52 H 6.044840 -1.547004 -1.022311 0
M  V30 53 H 6.241313 -0.690202 -2.634423 0
M  V30 54 H 7.521531 0.488175 -0.806069 0
M  V30 55 H 6.195357 1.526700 -1.441820 0
M  V30 56 H 6.002482 0.685606 0.139968 0
M  V30 END ATOM
M  V30 BEGIN BOND
M  V30 1 2 1 4
M  V30 2 2 1 5
M  V30 3 1 1 8
M  V30 4 1 1 15
M  V30 5 1 2 17
M  V30 6 1 2 20
M  V30 7 1 3 18
M  V30 8 1 3 23
M  V30 9 1 6 21
M  V30 10 1 6 27
M  V30 11 1 9 7
M  V30 12 1 7 13
M  V30 13 1 7 29
M  V30 14 1 8 30
M  V30 15 1 8 31
M  V30 16 1 9 10
M  V30 17 1 9 12
M  V30 18 1 9 32
M  V30 19 1 10 11
M  V30 20 1 10 33
M  V30 21 1 10 34
M  V30 22 1 11 14
M  V30 23 2 11 16
M  V30 24 1 12 35
M  V30 25 1 12 36
M  V30 26 1 12 37
M  V30 27 1 13 17
M  V30 28 1 13 38
M  V30 29 1 13 39
M  V30 30 2 14 15
M  V30 31 1 14 40
M  V30 32 1 15 18
M  V30 33 1 19 16
M  V30 34 1 16 41
M  V30 35 1 17 42
M  V30 36 1 17 43
M  V30 37 2 18 19
M  V30 38 1 19 44
M  V30 39 1 20 21
M  V30 40 2 20 22
M  V30 41 2 21 24
M  V30 42 1 25 22
M  V30 43 1 22 45
M  V30 44 1 23 46
M  V30 45 1 23 47
M  V30 46 1 23 48
M  V30 47 1 24 26
M  V30 48 1 24 49
M  V30 49 2 26 25
M  V30 50 1 25 50
M  V30 51 1 26 51
M  V30 52 1 27 28
M  V30 53 1 27 52
M  V30 54 1 27 53
M  V30 55 1 28 54
M  V30 56 1 28 55
M  V30 57 1 28 56
M  V30 END BOND
M  V30 END CTAB
M  END
