
  Chem3D Core 14.010291516263D

  0  0  0     0  0              0 V3000
M  V30 BEGIN CTAB
M  V30 COUNTS 39 39 0 0 0
M  V30 BEGIN ATOM
M  V30 1 O -1.437779 -3.536745 2.154412 0
M  V30 2 N 2.475035 0.140943 -1.485590 0
M  V30 3 C 0.020003 0.923407 0.903017 0
M  V30 4 C 0.264305 1.066959 -0.625058 0
M  V30 5 C 1.751287 1.314218 -0.998168 0
M  V30 6 C -0.209330 2.228808 1.697581 0
M  V30 7 C -1.101795 -0.078894 1.180866 0
M  V30 8 C -0.638476 2.121551 -1.295317 0
M  V30 9 C 0.991771 3.183187 1.746206 0
M  V30 10 C -0.816364 -1.344935 1.541166 0
M  V30 11 C -2.401167 0.256786 1.085854 0
M  V30 12 C 3.807186 0.517571 -1.942460 0
M  V30 13 C 2.575028 -0.914051 -0.488999 0
M  V30 14 C -1.762847 -2.265595 1.794340 0
M  V30 15 C -3.368099 -0.639304 1.332385 0
M  V30 16 C -3.048042 -1.892567 1.683090 0
M  V30 17 H -2.253331 -4.045219 2.292596 0
M  V30 18 H 0.947546 0.482776 1.345730 0
M  V30 19 H -0.022266 0.096271 -1.105684 0
M  V30 20 H 1.776657 2.090444 -1.799745 0
M  V30 21 H 2.299081 1.766501 -0.142137 0
M  V30 22 H -1.091957 2.789167 1.313905 0
M  V30 23 H -0.452287 1.953014 2.753811 0
M  V30 24 H -0.523910 2.101458 -2.403624 0
M  V30 25 H -1.716570 1.939736 -1.096570 0
M  V30 26 H -0.394596 3.153933 -0.961223 0
M  V30 27 H 0.784877 4.045219 2.421774 0
M  V30 28 H 1.902426 2.671159 2.132372 0
M  V30 29 H 1.223162 3.610907 0.745784 0
M  V30 30 H 0.234498 -1.661534 1.641032 0
M  V30 31 H -2.702404 1.277100 0.804947 0
M  V30 32 H 4.343281 -0.358209 -2.374939 0
M  V30 33 H 3.753324 1.279239 -2.753811 0
M  V30 34 H 4.428101 0.931417 -1.114961 0
M  V30 35 H 3.157370 -1.779227 -0.880473 0
M  V30 36 H 1.575067 -1.324777 -0.233108 0
M  V30 37 H 3.068987 -0.559022 0.444153 0
M  V30 38 H -4.428101 -0.345587 1.248692 0
M  V30 39 H -3.847827 -2.624312 1.885331 0
M  V30 END ATOM
M  V30 BEGIN BOND
M  V30 1 1 1 14
M  V30 2 1 1 17
M  V30 3 1 2 5
M  V30 4 1 2 12
M  V30 5 1 2 13
M  V30 6 1 3 4
M  V30 7 1 3 6
M  V30 8 1 3 7
M  V30 9 1 3 18
M  V30 10 1 4 5
M  V30 11 1 4 8
M  V30 12 1 4 19
M  V30 13 1 5 20
M  V30 14 1 5 21
M  V30 15 1 6 9
M  V30 16 1 6 22
M  V30 17 1 6 23
M  V30 18 1 7 10
M  V30 19 2 7 11
M  V30 20 1 8 24
M  V30 21 1 8 25
M  V30 22 1 8 26
M  V30 23 1 9 27
M  V30 24 1 9 28
M  V30 25 1 9 29
M  V30 26 2 10 14
M  V30 27 1 10 30
M  V30 28 1 15 11
M  V30 29 1 11 31
M  V30 30 1 12 32
M  V30 31 1 12 33
M  V30 32 1 12 34
M  V30 33 1 13 35
M  V30 34 1 13 36
M  V30 35 1 13 37
M  V30 36 1 14 16
M  V30 37 2 16 15
M  V30 38 1 15 38
M  V30 39 1 16 39
M  V30 END BOND
M  V30 END CTAB
M  END
