
  Chem3D Core 15.008141512273D

 86 91  0  0  0  0  0  0  0  0999 V2000
    0.2740    3.0532   -2.8749 O   0  0  0  0  0  0  0  0  0  0  0  0
    1.1555    2.4094   -3.3916 C   0  0  0  0  0  0  0  0  0  0  0  0
    1.1454    1.0456   -3.3899 C   0  0  0  0  0  0  0  0  0  0  0  0
    0.3212    0.3606   -2.5750 C   0  0  0  0  0  0  0  0  0  0  0  0
    0.3613   -0.9831   -2.5659 C   0  0  0  0  0  0  0  0  0  0  0  0
   -0.4095   -1.7027   -1.7304 C   0  0  0  0  0  0  0  0  0  0  0  0
   -0.3440   -3.0426   -1.7277 C   0  0  0  0  0  0  0  0  0  0  0  0
    0.4909   -3.6701   -2.5688 C   0  0  0  0  0  0  0  0  0  0  0  0
    1.2587   -2.9557   -3.4059 C   0  0  0  0  0  0  0  0  0  0  0  0
    1.2040   -1.6113   -3.4089 C   0  0  0  0  0  0  0  0  0  0  0  0
    1.9453   -0.9636   -4.2069 N   0  0  0  0  0  0  0  0  0  0  0  0
    1.9208    0.3016   -4.1986 C   0  0  0  0  0  0  0  0  0  0  0  0
    2.1875    3.1413   -3.8907 N   0  0  0  0  0  0  0  0  0  0  0  0
    3.5091    2.9936   -4.1310 C   0  0  0  0  0  0  0  0  0  0  0  0
    3.9524    3.8741   -5.0461 C   0  0  0  0  0  0  0  0  0  0  0  0
    5.2067    3.9397   -5.5307 C   0  0  0  0  0  0  0  0  0  0  0  0
    5.4343    4.8972   -6.4972 O   0  0  0  0  0  0  0  0  0  0  0  0
    6.4839    4.7567   -7.4243 C   0  0  0  0  0  0  0  0  0  0  0  0
    6.0922    3.0171   -5.0842 C   0  0  0  0  0  0  0  0  0  0  0  0
    7.3864    3.0271   -5.5499 O   0  0  0  0  0  0  0  0  0  0  0  0
    8.3720    2.2246   -4.9430 C   0  0  0  0  0  0  0  0  0  0  0  0
    5.6621    2.1729   -4.1233 C   0  0  0  0  0  0  0  0  0  0  0  0
    4.4138    2.1367   -3.6133 C   0  0  0  0  0  0  0  0  0  0  0  0
    4.1709    1.2711   -2.5825 C   0  0  0  0  0  0  0  0  0  0  0  0
    3.1832    1.6678   -1.7314 N   0  0  0  0  0  0  0  0  0  0  0  0
    2.6192    1.0884   -0.6508 C   0  0  0  0  0  0  0  0  0  0  0  0
    1.7178    1.8370    0.0112 C   0  0  0  0  0  0  0  0  0  0  0  0
    1.0554    1.3569    1.0742 C   0  0  0  0  0  0  0  0  0  0  0  0
    1.2706    0.1044    1.5093 C   0  0  0  0  0  0  0  0  0  0  0  0
    0.4977   -0.4650    2.6807 C   0  0  0  0  0  0  0  0  0  0  0  0
   -0.7210   -1.2576    2.1714 C   0  0  0  0  0  0  0  0  0  0  0  0
   -1.6493   -1.6695    3.2211 N   0  0  0  0  0  0  0  0  0  0  0  0
   -2.8655   -2.2132    2.6238 C   0  0  0  0  0  0  0  0  0  0  0  0
   -3.8282   -2.7604    3.6565 C   0  0  0  0  0  0  0  0  0  0  0  0
   -3.4396   -3.0618    4.9030 C   0  0  0  0  0  0  0  0  0  0  0  0
   -4.3524   -3.5351    5.7660 C   0  0  0  0  0  0  0  0  0  0  0  0
   -5.6525   -3.7309    5.4615 C   0  0  0  0  0  0  0  0  0  0  0  0
   -6.5573   -4.2331    6.3664 O   0  0  0  0  0  0  0  0  0  0  0  0
   -6.1177   -4.6911    7.6238 C   0  0  0  0  0  0  0  0  0  0  0  0
   -6.0412   -3.4580    4.1897 C   0  0  0  0  0  0  0  0  0  0  0  0
   -7.3196   -3.5760    3.6858 O   0  0  0  0  0  0  0  0  0  0  0  0
   -8.4359   -3.5239    4.5424 C   0  0  0  0  0  0  0  0  0  0  0  0
   -5.1159   -2.9662    3.3411 C   0  0  0  0  0  0  0  0  0  0  0  0
   -2.0087   -2.8588    5.3303 C   0  0  0  0  0  0  0  0  0  0  0  0
   -1.0716   -2.6417    4.1349 C   0  0  0  0  0  0  0  0  0  0  0  0
    2.1731   -0.6443    0.8540 C   0  0  0  0  0  0  0  0  0  0  0  0
    2.8367   -0.1623   -0.2082 C   0  0  0  0  0  0  0  0  0  0  0  0
    4.8753    0.3227   -2.3261 O   0  0  0  0  0  0  0  0  0  0  0  0
   -0.3630    0.8767   -1.8816 H   0  0  0  0  0  0  0  0  0  0  0  0
   -1.1022   -1.2070   -1.0293 H   0  0  0  0  0  0  0  0  0  0  0  0
   -0.9745   -3.6259   -1.0357 H   0  0  0  0  0  0  0  0  0  0  0  0
    0.5469   -4.7716   -2.5703 H   0  0  0  0  0  0  0  0  0  0  0  0
    1.9415   -3.4885   -4.0901 H   0  0  0  0  0  0  0  0  0  0  0  0
    2.5882    0.7583   -4.9466 H   0  0  0  0  0  0  0  0  0  0  0  0
    1.8772    4.0426   -4.2234 H   0  0  0  0  0  0  0  0  0  0  0  0
    3.2323    4.5997   -5.4688 H   0  0  0  0  0  0  0  0  0  0  0  0
    6.3243    5.5097   -8.2287 H   0  0  0  0  0  0  0  0  0  0  0  0
    7.4623    4.9907   -6.9515 H   0  0  0  0  0  0  0  0  0  0  0  0
    6.4598    3.7466   -7.8900 H   0  0  0  0  0  0  0  0  0  0  0  0
    9.3396    2.4402   -5.4496 H   0  0  0  0  0  0  0  0  0  0  0  0
    8.4813    2.4888   -3.8675 H   0  0  0  0  0  0  0  0  0  0  0  0
    8.1442    1.1459   -5.0934 H   0  0  0  0  0  0  0  0  0  0  0  0
    6.4082    1.4803   -3.7081 H   0  0  0  0  0  0  0  0  0  0  0  0
    2.7537    2.5658   -1.9015 H   0  0  0  0  0  0  0  0  0  0  0  0
    1.4964    2.8650   -0.3236 H   0  0  0  0  0  0  0  0  0  0  0  0
    0.3114    1.9944    1.5799 H   0  0  0  0  0  0  0  0  0  0  0  0
    1.1876   -1.1046    3.2764 H   0  0  0  0  0  0  0  0  0  0  0  0
    0.1594    0.3536    3.3578 H   0  0  0  0  0  0  0  0  0  0  0  0
   -1.2603   -0.5845    1.4602 H   0  0  0  0  0  0  0  0  0  0  0  0
   -0.3727   -2.1399    1.5830 H   0  0  0  0  0  0  0  0  0  0  0  0
   -3.3825   -1.4113    2.0441 H   0  0  0  0  0  0  0  0  0  0  0  0
   -2.6270   -3.0444    1.9176 H   0  0  0  0  0  0  0  0  0  0  0  0
   -3.9762   -3.7579    6.7762 H   0  0  0  0  0  0  0  0  0  0  0  0
   -7.0014   -5.1051    8.1595 H   0  0  0  0  0  0  0  0  0  0  0  0
   -5.3738   -5.5097    7.5010 H   0  0  0  0  0  0  0  0  0  0  0  0
   -5.7188   -3.8466    8.2287 H   0  0  0  0  0  0  0  0  0  0  0  0
   -9.3396   -3.3762    3.9091 H   0  0  0  0  0  0  0  0  0  0  0  0
   -8.5699   -4.4895    5.0763 H   0  0  0  0  0  0  0  0  0  0  0  0
   -8.3552   -2.6569    5.2350 H   0  0  0  0  0  0  0  0  0  0  0  0
   -5.4364   -2.7192    2.3139 H   0  0  0  0  0  0  0  0  0  0  0  0
   -1.6532   -3.7319    5.9272 H   0  0  0  0  0  0  0  0  0  0  0  0
   -1.9819   -1.9591    5.9914 H   0  0  0  0  0  0  0  0  0  0  0  0
   -0.8846   -3.6085    3.6093 H   0  0  0  0  0  0  0  0  0  0  0  0
   -0.0936   -2.2978    4.5425 H   0  0  0  0  0  0  0  0  0  0  0  0
    2.3527   -1.6839    1.1760 H   0  0  0  0  0  0  0  0  0  0  0  0
    3.5253   -0.8544   -0.7128 H   0  0  0  0  0  0  0  0  0  0  0  0
  1  2  2  0      
  2  3  1  0      
  2 13  1  0      
  3  4  2  0      
 12  3  1  0      
  4  5  1  0      
  4 49  1  0      
  5  6  2  0      
  5 10  1  0      
  6  7  1  0      
  6 50  1  0      
  7  8  2  0      
  7 51  1  0      
  8  9  1  0      
  8 52  1  0      
  9 10  2  0      
  9 53  1  0      
 10 11  1  0      
 12 11  2  0      
 12 54  1  0      
 13 14  1  0      
 13 55  1  0      
 14 15  1  0      
 14 23  2  0      
 15 16  2  0      
 15 56  1  0      
 16 17  1  0      
 16 19  1  0      
 17 18  1  0      
 18 57  1  0      
 18 58  1  0      
 18 59  1  0      
 19 20  1  0      
 19 22  2  0      
 20 21  1  0      
 21 60  1  0      
 21 61  1  0      
 21 62  1  0      
 22 23  1  0      
 22 63  1  0      
 23 24  1  0      
 24 25  1  0      
 24 48  2  0      
 25 26  1  0      
 25 64  1  0      
 26 27  1  0      
 26 47  2  0      
 27 28  2  0      
 27 65  1  0      
 28 29  1  0      
 28 66  1  0      
 29 30  1  0      
 29 46  2  0      
 30 31  1  0      
 30 67  1  0      
 30 68  1  0      
 31 32  1  0      
 31 69  1  0      
 31 70  1  0      
 32 33  1  0      
 32 45  1  0      
 33 34  1  0      
 33 71  1  0      
 33 72  1  0      
 34 35  2  0      
 34 43  1  0      
 36 35  1  0      
 35 44  1  0      
 37 36  2  0      
 36 73  1  0      
 37 38  1  0      
 40 37  1  0      
 38 39  1  0      
 39 74  1  0      
 39 75  1  0      
 39 76  1  0      
 40 41  1  0      
 43 40  2  0      
 41 42  1  0      
 42 77  1  0      
 42 78  1  0      
 42 79  1  0      
 43 80  1  0      
 44 45  1  0      
 44 81  1  0      
 44 82  1  0      
 45 83  1  0      
 45 84  1  0      
 46 47  1  0      
 46 85  1  0      
 47 86  1  0      
M  END
