
  Chem3D Core 14.010291516273D

  0  0  0     0  0              0 V3000
M  V30 BEGIN CTAB
M  V30 COUNTS 37 39 0 0 0
M  V30 BEGIN ATOM
M  V30 1 C -0.418657 3.158337 -2.512414 0
M  V30 2 C -0.037336 4.329509 -1.596624 0
M  V30 3 C 2.130210 -3.351116 0.381165 0
M  V30 4 C 2.119168 -2.063404 0.759318 0
M  V30 5 C 0.984669 -4.043197 0.338840 0
M  V30 6 C -1.575572 -1.717853 1.329913 0
M  V30 7 C -2.263337 -3.079967 1.134955 0
M  V30 8 C 0.744375 0.241112 2.921632 0
M  V30 9 C 0.267189 2.423327 1.615741 0
M  V30 10 C 0.019851 0.926167 1.787515 0
M  V30 11 C 0.993159 -1.402683 1.106836 0
M  V30 12 C -0.151530 -2.117832 1.048474 0
M  V30 13 C 1.200959 0.031782 1.495498 0
M  V30 14 C -0.144563 -3.409439 0.679391 0
M  V30 15 C 0.185288 3.980949 -0.143392 0
M  V30 16 N 0.038741 2.770811 0.194224 0
M  V30 17 O 0.532259 4.983310 0.708219 0
M  V30 18 O -1.244244 -3.959959 0.676019 0
M  V30 19 H -1.001798 0.648905 1.539129 0
M  V30 20 H 2.131325 0.501197 1.158797 0
M  V30 21 H -0.561178 3.507073 -3.561399 0
M  V30 22 H 0.376233 2.377603 -2.528000 0
M  V30 23 H -1.372748 2.682086 -2.189183 0
M  V30 24 H -0.841434 5.102505 -1.641628 0
M  V30 25 H 0.900163 4.798876 -1.980037 0
M  V30 26 H 3.079135 -3.843215 0.108949 0
M  V30 27 H 3.092897 -1.543707 0.781891 0
M  V30 28 H 0.974766 -5.102505 0.035124 0
M  V30 29 H -1.730995 -1.344289 2.366644 0
M  V30 30 H -1.944123 -0.999406 0.561525 0
M  V30 31 H -3.092897 -3.032186 0.391667 0
M  V30 32 H -2.673992 -3.468913 2.096837 0
M  V30 33 H 0.224336 -0.558544 3.443920 0
M  V30 34 H 1.383809 0.846769 3.561399 0
M  V30 35 H -0.451173 2.970814 2.271105 0
M  V30 36 H 1.304656 2.699967 1.916302 0
M  V30 37 H 0.616047 4.667838 1.622253 0
M  V30 END ATOM
M  V30 BEGIN BOND
M  V30 1 1 2 1
M  V30 2 1 1 21
M  V30 3 1 1 22
M  V30 4 1 1 23
M  V30 5 1 15 2
M  V30 6 1 2 24
M  V30 7 1 2 25
M  V30 8 1 3 4
M  V30 9 2 3 5
M  V30 10 1 3 26
M  V30 11 2 4 11
M  V30 12 1 4 27
M  V30 13 1 14 5
M  V30 14 1 5 28
M  V30 15 1 6 7
M  V30 16 1 12 6
M  V30 17 1 6 29
M  V30 18 1 6 30
M  V30 19 1 7 18
M  V30 20 1 7 31
M  V30 21 1 7 32
M  V30 22 1 8 10
M  V30 23 1 8 13
M  V30 24 1 8 33
M  V30 25 1 8 34
M  V30 26 1 10 9
M  V30 27 1 16 9
M  V30 28 1 9 35
M  V30 29 1 9 36
M  V30 30 1 10 13
M  V30 31 1 10 19
M  V30 32 1 11 12
M  V30 33 1 13 11
M  V30 34 2 12 14
M  V30 35 1 13 20
M  V30 36 1 18 14
M  V30 37 2 16 15
M  V30 38 1 17 15
M  V30 39 1 17 37
M  V30 END BOND
M  V30 END CTAB
M  END
