
  Chem3D Core 14.010291516303D

  0  0  0     0  0              0 V3000
M  V30 BEGIN CTAB
M  V30 COUNTS 52 56 0 0 0
M  V30 BEGIN ATOM
M  V30 1 O 0.184459 2.411112 2.471639 0
M  V30 2 N 1.708465 1.853810 0.871937 0
M  V30 3 N 3.096511 1.309756 -0.851403 0
M  V30 4 N 3.611330 2.704580 -2.526079 0
M  V30 5 N -1.193238 -5.492299 -1.470736 0
M  V30 6 N 0.117976 -4.278988 -0.475647 0
M  V30 7 N -0.001926 -5.766325 -2.049257 0
M  V30 8 N 0.772057 -4.925088 -1.326158 0
M  V30 9 C 1.365425 4.431887 -0.214727 0
M  V30 10 C 2.220704 3.375573 -0.864100 0
M  V30 11 C 0.208221 3.755013 0.513452 0
M  V30 12 C 2.355477 2.167224 -0.282255 0
M  V30 13 C 2.065532 0.632205 1.614666 0
M  V30 14 C 0.698035 2.625906 1.400555 0
M  V30 15 C 2.887886 3.605520 -2.011601 0
M  V30 16 C 0.965023 -0.401442 1.498440 0
M  V30 17 C 3.687900 1.592502 -1.931614 0
M  V30 18 C 0.334323 -0.883402 2.581335 0
M  V30 19 C 0.564285 -0.857630 0.301319 0
M  V30 20 C 2.856762 4.915190 -2.761464 0
M  V30 21 C -1.035577 -2.292751 1.276822 0
M  V30 22 C -0.646486 -1.793176 2.468677 0
M  V30 23 C -0.415463 -1.768935 0.199249 0
M  V30 24 C -2.046707 -3.188962 1.144720 0
M  V30 25 C 4.547489 0.517769 -2.543478 0
M  V30 26 C -2.133437 -4.155824 0.190861 0
M  V30 27 C -3.095487 -3.037953 1.985678 0
M  V30 28 C -3.312578 -4.799667 0.036792 0
M  V30 29 C -4.236734 -3.727756 1.856005 0
M  V30 30 C -1.104048 -4.608301 -0.565201 0
M  V30 31 C -4.358379 -4.597267 0.848993 0
M  V30 32 H 0.000237 -5.530221 -3.039150 0
M  V30 33 H 0.949431 5.154253 -0.953608 0
M  V30 34 H 1.997453 5.001244 0.507117 0
M  V30 35 H -0.500326 3.308878 -0.225043 0
M  V30 36 H -0.361434 4.502291 1.114081 0
M  V30 37 H 3.014447 0.164714 1.270205 0
M  V30 38 H 2.280650 0.892237 2.676464 0
M  V30 39 H 0.627421 -0.532026 3.584895 0
M  V30 40 H 1.026079 -0.461332 -0.617643 0
M  V30 41 H 3.605555 4.952828 -3.584895 0
M  V30 42 H 1.853974 5.075255 -3.218771 0
M  V30 43 H 3.085617 5.766325 -2.080856 0
M  V30 44 H -1.085755 -2.149770 3.415518 0
M  V30 45 H -0.736054 -2.028703 -0.824445 0
M  V30 46 H 5.104470 0.879701 -3.437198 0
M  V30 47 H 5.297954 0.150520 -1.806657 0
M  V30 48 H 3.916703 -0.343569 -2.861769 0
M  V30 49 H -3.117535 -2.267987 2.775117 0
M  V30 50 H -3.467106 -5.579046 -0.728691 0
M  V30 51 H -5.086115 -3.548924 2.536817 0
M  V30 52 H -5.297954 -5.158694 0.712108 0
M  V30 END ATOM
M  V30 BEGIN BOND
M  V30 1 2 1 14
M  V30 2 1 2 12
M  V30 3 1 2 13
M  V30 4 1 14 2
M  V30 5 1 12 3
M  V30 6 2 17 3
M  V30 7 2 4 15
M  V30 8 1 17 4
M  V30 9 1 7 5
M  V30 10 2 5 30
M  V30 11 2 6 8
M  V30 12 1 30 6
M  V30 13 1 7 8
M  V30 14 1 7 32
M  V30 15 1 10 9
M  V30 16 1 9 11
M  V30 17 1 9 33
M  V30 18 1 9 34
M  V30 19 2 10 12
M  V30 20 1 15 10
M  V30 21 1 11 14
M  V30 22 1 11 35
M  V30 23 1 11 36
M  V30 24 1 13 16
M  V30 25 1 13 37
M  V30 26 1 13 38
M  V30 27 1 15 20
M  V30 28 1 16 18
M  V30 29 2 16 19
M  V30 30 1 17 25
M  V30 31 2 18 22
M  V30 32 1 18 39
M  V30 33 1 23 19
M  V30 34 1 19 40
M  V30 35 1 20 41
M  V30 36 1 20 42
M  V30 37 1 20 43
M  V30 38 1 22 21
M  V30 39 2 21 23
M  V30 40 1 21 24
M  V30 41 1 22 44
M  V30 42 1 23 45
M  V30 43 1 24 26
M  V30 44 2 24 27
M  V30 45 1 25 46
M  V30 46 1 25 47
M  V30 47 1 25 48
M  V30 48 2 26 28
M  V30 49 1 26 30
M  V30 50 1 29 27
M  V30 51 1 27 49
M  V30 52 1 28 31
M  V30 53 1 28 50
M  V30 54 2 31 29
M  V30 55 1 29 51
M  V30 56 1 31 52
M  V30 END BOND
M  V30 END CTAB
M  END
