
  Chem3D Core 14.010291516313D

  0  0  0     0  0              0 V3000
M  V30 BEGIN CTAB
M  V30 COUNTS 17 18 0 0 0
M  V30 BEGIN ATOM
M  V30 1 C -1.678529 -0.403452 0.126519 0
M  V30 2 C -1.760432 0.940179 0.149784 0
M  V30 3 C -0.645024 1.691422 0.110141 0
M  V30 4 C 0.553188 1.092098 0.047314 0
M  V30 5 C 0.598101 -0.243327 0.026040 0
M  V30 6 C -0.486898 -1.021117 0.063636 0
M  V30 7 F -2.946210 1.526143 0.212053 0
M  V30 8 C 1.902568 1.780466 -0.003358 0
M  V30 9 O 2.946210 0.816079 -0.062577 0
M  V30 10 B 2.135032 -0.624080 -0.046626 0
M  V30 11 O 2.707989 -2.156321 -0.091975 0
M  V30 12 H -2.600890 -1.007027 0.159450 0
M  V30 13 H -0.708347 2.790956 0.129075 0
M  V30 14 H -0.399405 -2.118171 0.043597 0
M  V30 15 H 2.054902 2.401395 0.907911 0
M  V30 16 H 1.974193 2.425338 -0.907911 0
M  V30 17 H 2.013421 -2.790956 -0.097658 0
M  V30 END ATOM
M  V30 BEGIN BOND
M  V30 1 1 2 1
M  V30 2 2 1 6
M  V30 3 1 1 12
M  V30 4 2 3 2
M  V30 5 1 2 7
M  V30 6 1 4 3
M  V30 7 1 3 13
M  V30 8 2 4 5
M  V30 9 1 8 4
M  V30 10 1 6 5
M  V30 11 1 10 5
M  V30 12 1 6 14
M  V30 13 1 9 8
M  V30 14 1 8 15
M  V30 15 1 8 16
M  V30 16 1 10 9
M  V30 17 1 10 11
M  V30 18 1 11 17
M  V30 END BOND
M  V30 END CTAB
M  END
