
  Chem3D Core 15.001261617453D

 54 57  0  0  0  0  0  0  0  0999 V2000
   -2.0450   -4.9187    1.8091 O   0  0  0  0  0  0  0  0  0  0  0  0
   -1.4474   -3.8840    1.6266 C   0  0  0  0  0  0  0  0  0  0  0  0
   -0.0958   -3.7791    1.6810 C   0  0  0  0  0  0  0  0  0  0  0  0
    0.6547   -2.6826    1.4925 C   0  0  0  0  0  0  0  0  0  0  0  0
    1.9542   -3.0211    1.6358 C   0  0  0  0  0  0  0  0  0  0  0  0
    2.9984   -2.1716    1.5150 C   0  0  0  0  0  0  0  0  0  0  0  0
    2.6945   -0.9676    1.2440 N   0  0  0  0  0  0  0  0  0  0  0  0
    3.5272   -0.0178    1.0894 C   0  0  0  0  0  0  0  0  0  0  0  0
    2.9925    1.1085    0.8214 N   0  0  0  0  0  0  0  0  0  0  0  0
    3.2899    2.3271    0.5798 C   0  0  0  0  0  0  0  0  0  0  0  0
    2.1830    3.0740    0.3609 C   0  0  0  0  0  0  0  0  0  0  0  0
    2.2258    4.3857    0.0857 C   0  0  0  0  0  0  0  0  0  0  0  0
    3.4055    5.0127    0.0177 C   0  0  0  0  0  0  0  0  0  0  0  0
    3.4693    6.3068   -0.2526 F   0  0  0  0  0  0  0  0  0  0  0  0
    4.5176    4.2963    0.2303 C   0  0  0  0  0  0  0  0  0  0  0  0
    4.4747    2.9781    0.5070 C   0  0  0  0  0  0  0  0  0  0  0  0
    6.0410    2.2806    0.7403 Cl  0  0  0  0  0  0  0  0  0  0  0  0
    4.7615   -0.2622    1.2097 N   0  0  0  0  0  0  0  0  0  0  0  0
    5.1464   -1.4324    1.4783 C   0  0  0  0  0  0  0  0  0  0  0  0
    4.3087   -2.4674    1.6502 C   0  0  0  0  0  0  0  0  0  0  0  0
    4.8953   -3.8217    1.9687 C   0  0  0  0  0  0  0  0  0  0  0  0
    1.9101   -4.3369    1.9096 C   0  0  0  0  0  0  0  0  0  0  0  0
    0.7052   -4.7294    1.9245 N   0  0  0  0  0  0  0  0  0  0  0  0
   -2.0976   -2.7139    1.3482 N   0  0  0  0  0  0  0  0  0  0  0  0
   -3.5623   -2.6095    1.2765 C   0  0  0  0  0  0  0  0  0  0  0  0
   -3.7884   -1.6248    0.7944 H   0  0  0  0  0  0  0  0  0  0  0  0
   -4.1160   -3.6678    0.3381 C   0  0  0  0  0  0  0  0  0  0  0  0
   -5.0381   -4.5766    0.7065 C   0  0  0  0  0  0  0  0  0  0  0  0
   -5.4835   -5.5030   -0.1566 C   0  0  0  0  0  0  0  0  0  0  0  0
   -5.0148   -5.5399   -1.4126 C   0  0  0  0  0  0  0  0  0  0  0  0
   -4.0976   -4.6396   -1.7966 C   0  0  0  0  0  0  0  0  0  0  0  0
   -3.4813   -4.6682   -3.4095 Cl  0  0  0  0  0  0  0  0  0  0  0  0
   -3.6579   -3.7157   -0.9275 C   0  0  0  0  0  0  0  0  0  0  0  0
   -4.1612   -2.5491    2.6806 C   0  0  0  0  0  0  0  0  0  0  0  0
   -3.7875   -3.7030    3.4095 O   0  0  0  0  0  0  0  0  0  0  0  0
    0.2674   -1.6821    1.2601 H   0  0  0  0  0  0  0  0  0  0  0  0
    1.9477    0.9697    0.7930 H   0  0  0  0  0  0  0  0  0  0  0  0
    1.1694    2.6336    0.3985 H   0  0  0  0  0  0  0  0  0  0  0  0
    1.2947    4.9516   -0.0851 H   0  0  0  0  0  0  0  0  0  0  0  0
    5.4794    4.8352    0.1690 H   0  0  0  0  0  0  0  0  0  0  0  0
    6.2382   -1.5601    1.5659 H   0  0  0  0  0  0  0  0  0  0  0  0
    6.0064   -3.8018    2.0275 H   0  0  0  0  0  0  0  0  0  0  0  0
    4.5508   -4.1790    2.9650 H   0  0  0  0  0  0  0  0  0  0  0  0
    4.6527   -4.5571    1.1690 H   0  0  0  0  0  0  0  0  0  0  0  0
    2.6893   -5.0754    2.1076 H   0  0  0  0  0  0  0  0  0  0  0  0
    0.4012   -5.7127    2.1137 H   0  0  0  0  0  0  0  0  0  0  0  0
   -1.5441   -1.8675    1.2359 H   0  0  0  0  0  0  0  0  0  0  0  0
   -5.4544   -4.5920    1.7247 H   0  0  0  0  0  0  0  0  0  0  0  0
   -6.2382   -6.2399    0.1669 H   0  0  0  0  0  0  0  0  0  0  0  0
   -5.3884   -6.3068   -2.1115 H   0  0  0  0  0  0  0  0  0  0  0  0
   -2.9020   -2.9805   -1.2509 H   0  0  0  0  0  0  0  0  0  0  0  0
   -3.7701   -1.6683    3.2397 H   0  0  0  0  0  0  0  0  0  0  0  0
   -5.2708   -2.4761    2.6628 H   0  0  0  0  0  0  0  0  0  0  0  0
   -3.6256   -4.4356    2.8044 H   0  0  0  0  0  0  0  0  0  0  0  0
  1  2  2  0      
  2  3  1  0      
  2 24  1  0      
  3  4  2  0      
  3 23  1  0      
  4  5  1  0      
  4 36  1  0      
  5  6  1  0      
  5 22  2  0      
  6  7  1  0      
 20  6  2  0      
  7  8  2  0      
  8  9  1  0      
  8 18  1  0      
  9 10  1  0      
  9 37  1  0      
 10 11  1  0      
 10 16  2  0      
 11 12  2  0      
 11 38  1  0      
 12 13  1  0      
 12 39  1  0      
 13 14  1  0      
 13 15  2  0      
 15 16  1  0      
 15 40  1  0      
 16 17  1  0      
 19 18  2  0      
 19 20  1  0      
 19 41  1  0      
 20 21  1  0      
 21 42  1  0      
 21 43  1  0      
 21 44  1  0      
 22 23  1  0      
 22 45  1  0      
 23 46  1  0      
 24 25  1  0      
 24 47  1  0      
 25 26  1  0      
 25 27  1  0      
 25 34  1  0      
 27 28  1  0      
 27 33  2  0      
 28 29  2  0      
 28 48  1  0      
 29 30  1  0      
 29 49  1  0      
 30 31  2  0      
 30 50  1  0      
 31 32  1  0      
 31 33  1  0      
 33 51  1  0      
 34 35  1  0      
 34 52  1  0      
 34 53  1  0      
 35 54  1  0      
M  END
