
  Chem3D Core 14.010291515053D

  0  0  0     0  0              0 V3000
M  V30 BEGIN CTAB
M  V30 COUNTS 47 50 0 0 0
M  V30 BEGIN ATOM
M  V30 1 C 0.761252 -8.920349 0.415379 0
M  V30 2 N 0.722947 -8.005800 1.536717 0
M  V30 3 N -0.506447 -7.883537 2.096068 0
M  V30 4 N -0.952633 -6.711940 2.081099 0
M  V30 5 C -0.076476 -5.988450 1.518104 0
M  V30 6 N 0.908790 -6.710605 1.185648 0
M  V30 7 C -0.184288 -4.662215 1.305130 0
M  V30 8 C 0.779761 -3.950634 0.699219 0
M  V30 9 C 0.627929 -2.630432 0.507719 0
M  V30 10 C -0.479857 -1.970222 0.908138 0
M  V30 11 C -1.358283 -2.812269 1.499686 0
M  V30 12 N -1.228792 -4.058045 1.686347 0
M  V30 13 C -0.698867 -0.634422 0.745391 0
M  V30 14 C -1.821321 -0.032680 1.195117 0
M  V30 15 C -2.087941 1.277307 1.062463 0
M  V30 16 C -1.255069 2.143116 0.456184 0
M  V30 17 C -0.135129 1.543671 0.005420 0
M  V30 18 C 0.142000 0.233180 0.136129 0
M  V30 19 F 1.303171 -0.129392 -0.384047 0
M  V30 20 N -1.503327 3.393452 0.323930 0
M  V30 21 C -0.535316 4.227084 -0.443606 0
M  V30 22 C -1.286486 5.531852 -0.685781 0
M  V30 23 C -0.482088 6.786141 -0.374754 0
M  V30 24 O 0.627291 6.833565 -1.236962 0
M  V30 25 P 1.654434 8.049704 -1.118987 0
M  V30 26 O 2.771908 7.996411 -2.096068 0
M  V30 27 O 1.034267 9.535505 -1.261210 0
M  V30 28 O 2.377344 8.223596 0.318101 0
M  V30 29 O -2.391737 5.439068 0.150251 0
M  V30 30 C -2.425845 4.186736 0.696111 0
M  V30 31 O -3.307824 3.915491 1.485682 0
M  V30 32 H 0.536043 -9.958076 0.753771 0
M  V30 33 H 0.022692 -8.639378 -0.370938 0
M  V30 34 H 1.776795 -8.927590 -0.043741 0
M  V30 35 H 1.709093 -4.432427 0.350112 0
M  V30 36 H 1.480768 -2.156729 0.007453 0
M  V30 37 H -2.330958 -2.488693 1.898937 0
M  V30 38 H -2.619935 -0.582914 1.713776 0
M  V30 39 H -3.056915 1.594465 1.473831 0
M  V30 40 H 0.653560 2.120876 -0.502772 0
M  V30 41 H -0.276213 3.798822 -1.440923 0
M  V30 42 H 0.386011 4.399474 0.161462 0
M  V30 43 H -1.670091 5.583387 -1.734961 0
M  V30 44 H -1.117456 7.689036 -0.534564 0
M  V30 45 H -0.135864 6.768068 0.685081 0
M  V30 46 H 1.439000 9.958076 -1.999322 0
M  V30 47 H 3.307824 8.146529 0.193422 0
M  V30 END ATOM
M  V30 BEGIN BOND
M  V30 1 1 1 2
M  V30 2 1 1 32
M  V30 3 1 1 33
M  V30 4 1 1 34
M  V30 5 1 2 3
M  V30 6 1 2 6
M  V30 7 2 3 4
M  V30 8 1 4 5
M  V30 9 2 5 6
M  V30 10 1 5 7
M  V30 11 1 8 7
M  V30 12 2 7 12
M  V30 13 2 9 8
M  V30 14 1 8 35
M  V30 15 1 10 9
M  V30 16 1 9 36
M  V30 17 2 10 11
M  V30 18 1 10 13
M  V30 19 1 12 11
M  V30 20 1 11 37
M  V30 21 1 13 14
M  V30 22 2 13 18
M  V30 23 2 14 15
M  V30 24 1 14 38
M  V30 25 1 15 16
M  V30 26 1 15 39
M  V30 27 2 16 17
M  V30 28 1 16 20
M  V30 29 1 17 18
M  V30 30 1 17 40
M  V30 31 1 18 19
M  V30 32 1 21 20
M  V30 33 1 30 20
M  V30 34 1 22 21
M  V30 35 1 21 41
M  V30 36 1 21 42
M  V30 37 1 22 23
M  V30 38 1 29 22
M  V30 39 1 22 43
M  V30 40 1 23 24
M  V30 41 1 23 44
M  V30 42 1 23 45
M  V30 43 1 24 25
M  V30 44 2 25 26
M  V30 45 1 25 27
M  V30 46 1 25 28
M  V30 47 1 27 46
M  V30 48 1 28 47
M  V30 49 1 30 29
M  V30 50 2 30 31
M  V30 END BOND
M  V30 END CTAB
M  END
