
  Chem3D Core 14.010291515063D

  0  0  0     0  0              0 V3000
M  V30 BEGIN CTAB
M  V30 COUNTS 23 24 0 0 0
M  V30 BEGIN ATOM
M  V30 1 C 2.724333 -2.310744 0.266697 0
M  V30 2 C 1.867187 -1.374810 1.120169 0
M  V30 3 C 1.208538 -0.516873 0.038108 0
M  V30 4 O 1.185483 -1.265062 -1.163610 0
M  V30 5 C 1.805718 -2.505009 -0.931809 0
M  V30 6 N -0.100052 0.044585 0.405139 0
M  V30 7 C -0.279513 1.377318 0.547134 0
M  V30 8 C -1.459332 1.943561 0.861111 0
M  V30 9 C -2.562120 1.163881 1.051117 0
M  V30 10 O -3.664635 1.573852 1.334968 0
M  V30 11 N -2.370266 -0.183677 0.903678 0
M  V30 12 C -1.177712 -0.782680 0.597987 0
M  V30 13 O -1.131390 -1.982501 0.517344 0
M  V30 14 F -1.537117 3.263106 0.979643 0
M  V30 15 H 2.983319 -3.263106 0.781879 0
M  V30 16 H 3.664635 -1.798315 -0.047525 0
M  V30 17 H 2.465328 -0.781055 1.848075 0
M  V30 18 H 1.120768 -1.967922 1.695347 0
M  V30 19 H 1.924172 0.320438 -0.163596 0
M  V30 20 H 2.350340 -2.824668 -1.848075 0
M  V30 21 H 1.016325 -3.258736 -0.707253 0
M  V30 22 H 0.592765 2.033116 0.394772 0
M  V30 23 H -3.166977 -0.783516 1.037914 0
M  V30 END ATOM
M  V30 BEGIN BOND
M  V30 1 1 2 1
M  V30 2 1 1 5
M  V30 3 1 1 15
M  V30 4 1 1 16
M  V30 5 1 3 2
M  V30 6 1 2 17
M  V30 7 1 2 18
M  V30 8 1 3 4
M  V30 9 1 3 6
M  V30 10 1 3 19
M  V30 11 1 5 4
M  V30 12 1 5 20
M  V30 13 1 5 21
M  V30 14 1 7 6
M  V30 15 1 6 12
M  V30 16 2 8 7
M  V30 17 1 7 22
M  V30 18 1 8 9
M  V30 19 1 8 14
M  V30 20 2 9 10
M  V30 21 1 11 9
M  V30 22 1 12 11
M  V30 23 1 11 23
M  V30 24 2 12 13
M  V30 END BOND
M  V30 END CTAB
M  END
