
  Chem3D Core 15.001121613403D

  0  0  0     0  0              0 V3000
M  V30 BEGIN CTAB
M  V30 COUNTS 227 236 0 0 0
M  V30 BEGIN ATOM
M  V30 1 C -4.519826 -3.560264 -0.591353 0
M  V30 2 C -5.713855 -4.014461 -0.146714 0
M  V30 3 C -4.137006 -2.293495 -0.308621 0
M  V30 4 O -3.768962 -4.332938 -1.440761 0
M  V30 5 C -6.458881 -3.196073 0.621053 0
M  V30 6 O -6.217840 -5.240550 -0.533503 0
M  V30 7 C -4.927806 -1.520941 0.465033 0
M  V30 8 O -2.997576 -1.771427 -0.876386 0
M  V30 9 C -2.548614 -4.808442 -0.923632 0
M  V30 10 C -6.112826 -1.938728 0.919589 0
M  V30 11 C -7.449057 -5.034779 -1.111983 0
M  V30 12 C -3.159859 -0.441513 -1.161971 0
M  V30 13 C -2.453352 -6.323846 -0.931435 0
M  V30 14 O -1.507752 -4.188015 -1.643569 0
M  V30 15 C -7.145711 -1.025515 1.552497 0
M  V30 16 C -7.610370 -4.592162 -2.376125 0
M  V30 17 C -8.569848 -5.205245 -0.385371 0
M  V30 18 C -4.094599 0.019190 -2.020240 0
M  V30 19 C -2.431876 0.470336 -0.493060 0
M  V30 20 O -1.332020 -6.649643 -0.156202 0
M  V30 21 C -2.321472 -6.859153 -2.351041 0
M  V30 22 C -1.350464 -4.585467 -2.978523 0
M  V30 23 C -8.160600 -0.783073 0.428055 0
M  V30 24 N -6.571928 0.255775 1.985172 0
M  V30 25 C -8.815492 -4.214916 -2.831507 0
M  V30 26 Cl -6.260606 -4.394857 -3.437991 0
M  V30 27 C -9.772639 -4.822480 -0.833200 0
M  V30 28 C -4.368816 1.329253 -2.103797 0
M  V30 29 Cl -5.093767 -1.053374 -2.939214 0
M  V30 30 C -2.693032 1.780158 -0.587158 0
M  V30 31 C -1.315819 -7.942714 0.397075 0
M  V30 32 C -1.273142 -6.097039 -3.144185 0
M  V30 33 O -3.570281 -6.761731 -2.993135 0
M  V30 34 C -2.344118 -3.919749 -3.924107 0
M  V30 35 N -7.629083 -0.125062 -0.648316 0
M  V30 36 O -9.303148 -1.159407 0.486177 0
M  V30 37 C -7.328530 1.179808 2.650422 0
M  V30 38 C -9.904362 -4.261426 -2.046083 0
M  V30 39 C -3.716714 2.219549 -1.337422 0
M  V30 40 C 0.109942 -8.384045 0.697855 0
M  V30 41 O -2.120367 -7.944651 1.556869 0
M  V30 42 O 0.007419 -6.545077 -2.757069 0
M  V30 43 O -2.488567 -2.552893 -3.595836 0
M  V30 44 C -8.384821 0.420708 -1.784013 0
M  V30 45 C -6.603840 2.449265 3.097781 0
M  V30 46 O -8.496804 1.002377 2.895616 0
M  V30 47 C -11.207678 -3.637221 -2.504052 0
M  V30 48 C -4.184979 3.653595 -1.212235 0
M  V30 49 C 0.759698 -7.659026 1.891961 0
M  V30 50 C -1.624875 -7.177974 2.619505 0
M  V30 51 C -9.260929 1.570949 -1.336632 0
M  V30 52 C -9.192534 -0.462831 -2.756254 0
M  V30 53 N -5.560413 3.031857 2.239006 0
M  V30 54 C -7.572809 3.566171 3.528695 0
M  V30 55 C -10.977003 -2.187342 -2.980690 0
M  V30 56 O -12.153745 -3.592176 -1.448020 0
M  V30 57 C -4.528472 3.967176 0.253746 0
M  V30 58 O -5.394717 3.861153 -1.918525 0
M  V30 59 C -0.255859 -7.696147 3.046592 0
M  V30 60 C 1.099891 -6.187275 1.537654 0
M  V30 61 N 2.080110 -8.205971 2.265158 0
M  V30 62 C -2.650156 -7.227231 3.756420 0
M  V30 63 C -10.528032 1.346227 -0.963294 0
M  V30 64 C -8.843299 2.845993 -1.343241 0
M  V30 65 N -9.861083 -1.545478 -2.246632 0
M  V30 66 O -9.342981 -0.110883 -3.901182 0
M  V30 67 C -5.494979 2.951062 0.876516 0
M  V30 68 C -8.405032 4.079326 2.367084 0
M  V30 69 C -12.263030 -1.346590 -2.909513 0
M  V30 70 N -5.110153 5.315207 0.317766 0
M  V30 71 O -0.446254 -9.012373 3.509402 0
M  V30 72 C -11.381349 2.325532 -0.632853 0
M  V30 73 C -9.663008 3.831937 -0.952966 0
M  V30 74 O -6.128920 2.166051 0.217969 0
M  V30 75 N -9.592870 3.448989 2.185444 0
M  V30 76 O -8.059660 4.974138 1.642697 0
M  V30 77 N -12.060899 0.002461 -2.818109 0
M  V30 78 O -13.360873 -1.845284 -2.916022 0
M  V30 79 C -5.103241 6.082590 1.449133 0
M  V30 80 C -12.648100 1.979719 -0.324555 0
M  V30 81 C -10.924749 3.592555 -0.558008 0
M  V30 82 C -13.128575 0.990865 -2.632260 0
M  V30 83 C -5.754668 7.447855 1.262019 0
M  V30 84 O -4.621798 5.690511 2.481222 0
M  V30 85 C -13.447735 1.277271 -1.160461 0
M  V30 86 C -13.098207 2.376056 0.882075 0
M  V30 87 O -11.734014 4.634447 -0.225653 0
M  V30 88 C -12.791310 2.312087 -3.325716 0
M  V30 89 C -5.749609 8.322122 2.531908 0
M  V30 90 N -5.146111 8.101284 0.101547 0
M  V30 91 C -14.683130 0.977294 -0.720509 0
M  V30 92 C -14.344206 2.062860 1.286134 0
M  V30 93 O -12.263727 3.024054 1.739325 0
M  V30 94 O -11.508510 2.350265 -3.731946 0
M  V30 95 O -13.542008 3.245358 -3.486756 0
M  V30 96 C -4.363874 8.817771 3.001100 0
M  V30 97 C -5.964575 9.148814 -0.505093 0
M  V30 98 C -15.150846 1.346024 0.483046 0
M  V30 99 C -4.032382 10.225415 2.473608 0
M  V30 100 C -4.284576 8.826827 4.539397 0
M  V30 101 O -16.423082 1.021515 0.841253 0
M  V30 102 C 2.321012 -9.649791 2.267752 0
M  V30 103 C -14.809025 2.576234 2.638667 0
M  V30 104 N -14.613513 4.029300 2.636080 0
M  V30 105 C -13.806118 4.592054 3.722085 0
M  V30 106 P -12.707888 5.950536 3.045553 0
M  V30 107 O -12.669914 7.314205 3.854472 0
M  V30 108 O -11.360056 5.428135 2.702697 0
M  V30 109 O -13.396604 6.080038 1.583240 0
M  V30 110 C 3.813620 -9.880882 2.564095 0
M  V30 111 N 4.613690 -9.262888 1.505013 0
M  V30 112 C 6.057691 -9.350357 1.722750 0
M  V30 113 C 6.798914 -8.665815 0.563213 0
M  V30 114 C 8.324261 -8.684280 0.751195 0
M  V30 115 C 9.047322 -7.972711 -0.404299 0
M  V30 116 C 10.572548 -7.954328 -0.212496 0
M  V30 117 C 11.284006 -7.228324 -1.366156 0
M  V30 118 C 12.808872 -7.191445 -1.174153 0
M  V30 119 C 13.514171 -6.459424 -2.327690 0
M  V30 120 C 15.038851 -6.418106 -2.138480 0
M  V30 121 C 15.737099 -5.686165 -3.292384 0
M  V30 122 H -7.451049 -3.513446 0.972726 0
M  V30 123 H -4.648103 -0.479246 0.669940 0
M  V30 124 H -2.450732 -4.457196 0.132515 0
M  V30 125 H -3.363952 -6.736252 -0.435078 0
M  V30 126 H -7.625571 -1.534482 2.420237 0
M  V30 127 H -8.491496 -5.587170 0.647587 0
M  V30 128 H -1.663446 0.129988 0.221969 0
M  V30 129 H -2.084025 -7.947250 -2.362618 0
M  V30 130 H -0.355041 -4.166168 -3.280142 0
M  V30 131 H -5.647833 0.531104 1.654125 0
M  V30 132 H -8.907080 -3.790861 -3.845052 0
M  V30 133 H -10.627277 -4.909101 -0.144086 0
M  V30 134 H -5.203256 1.652449 -2.745349 0
M  V30 135 H -2.122041 2.476483 0.047449 0
M  V30 136 H -1.768670 -8.662229 -0.322721 0
M  V30 137 H -1.354272 -6.360355 -4.225571 0
M  V30 138 H -3.577685 -7.273456 -3.804053 0
M  V30 139 H -3.354653 -4.371175 -3.905565 0
M  V30 140 H -1.982270 -3.972814 -4.976198 0
M  V30 141 H -6.641793 0.146202 -0.580689 0
M  V30 142 H 0.747363 -8.280309 -0.211018 0
M  V30 143 H 0.042458 -9.475147 0.919906 0
M  V30 144 H 0.679647 -6.121999 -3.295877 0
M  V30 145 H -3.089043 -2.478549 -2.841282 0
M  V30 146 H -7.590578 0.852178 -2.443710 0
M  V30 147 H -6.063994 2.117692 4.021460 0
M  V30 148 H -11.664979 -4.262647 -3.305086 0
M  V30 149 H -3.425617 4.357162 -1.621639 0
M  V30 150 H -1.570668 -6.108585 2.312043 0
M  V30 151 H -4.918537 3.685766 2.687427 0
M  V30 152 H -6.988480 4.424031 3.939655 0
M  V30 153 H -8.243409 3.234630 4.354981 0
M  V30 154 H -10.716805 -2.239753 -4.066149 0
M  V30 155 H -13.010949 -3.324699 -1.787344 0
M  V30 156 H -3.586181 3.951851 0.850119 0
M  V30 157 H -5.974445 3.129382 -1.672325 0
M  V30 158 H 0.133994 -7.106320 3.908252 0
M  V30 159 H 0.230658 -5.541957 1.304901 0
M  V30 160 H 1.629553 -5.687603 2.380963 0
M  V30 161 H 1.770927 -6.136636 0.649769 0
M  V30 162 H 2.796917 -7.795586 1.614097 0
M  V30 163 H -2.295212 -6.653815 4.643134 0
M  V30 164 H -2.860527 -8.270082 4.084140 0
M  V30 165 H -3.621025 -6.782765 3.436389 0
M  V30 166 H -10.881364 0.309583 -0.894227 0
M  V30 167 H -7.828137 3.095696 -1.679365 0
M  V30 168 H -9.666197 -1.889949 -1.310530 0
M  V30 169 H -5.595054 5.663648 -0.509761 0
M  V30 170 H -0.978507 -9.485890 2.864123 0
M  V30 171 H -9.295924 4.872041 -0.974828 0
M  V30 172 H -10.252349 3.836136 1.519948 0
M  V30 173 H -9.856800 2.624343 2.705439 0
M  V30 174 H -11.110817 0.365303 -2.910222 0
M  V30 175 H -14.033958 0.647505 -3.187208 0
M  V30 176 H -6.819161 7.212909 1.011077 0
M  V30 177 H -11.622978 4.861872 0.713509 0
M  V30 178 H -6.433938 9.192911 2.411529 0
M  V30 179 H -6.219202 7.711352 3.340121 0
M  V30 180 H -4.221122 8.510273 0.381727 0
M  V30 181 H -15.378161 0.439128 -1.386737 0
M  V30 182 H -12.455081 3.975399 1.677590 0
M  V30 183 H -11.310071 3.227550 -4.094441 0
M  V30 184 H -3.575652 8.116250 2.631407 0
M  V30 185 H -5.418184 9.589045 -1.369998 0
M  V30 186 H -6.928275 8.736046 -0.881168 0
M  V30 187 H -6.177105 9.969510 0.214454 0
M  V30 188 H -3.027100 10.557052 2.820382 0
M  V30 189 H -4.016263 10.266955 1.363172 0
M  V30 190 H -4.774519 10.975249 2.829863 0
M  V30 191 H -3.287894 9.176948 4.892689 0
M  V30 192 H -4.438702 7.806635 4.959900 0
M  V30 193 H -5.057374 9.499550 4.976198 0
M  V30 194 H -16.841086 0.523481 0.120273 0
M  V30 195 H 1.709387 -10.173908 3.034529 0
M  V30 196 H 2.107585 -10.091605 1.267535 0
M  V30 197 H -15.883086 2.360045 2.835449 0
M  V30 198 H -14.229838 2.060018 3.437113 0
M  V30 199 H -14.144322 4.235980 1.718185 0
M  V30 200 H -14.466767 5.002846 4.518930 0
M  V30 201 H -13.129848 3.839694 4.186545 0
M  V30 202 H -11.799347 7.671151 3.820177 0
M  V30 203 H -14.333599 6.090005 1.669514 0
M  V30 204 H 4.027182 -10.975249 2.604369 0
M  V30 205 H 4.071196 -9.438901 3.555783 0
M  V30 206 H 4.381510 -9.729332 0.592583 0
M  V30 207 H 6.327666 -8.852862 2.684165 0
M  V30 208 H 6.365288 -10.420694 1.782672 0
M  V30 209 H 6.535101 -9.174628 -0.394656 0
M  V30 210 H 6.450472 -7.608122 0.483309 0
M  V30 211 H 8.583095 -8.182180 1.713608 0
M  V30 212 H 8.677940 -9.740404 0.818945 0
M  V30 213 H 8.800792 -8.484282 -1.365007 0
M  V30 214 H 8.675091 -6.923292 -0.480731 0
M  V30 215 H 10.817641 -7.446231 0.750403 0
M  V30 216 H 10.950375 -9.002014 -0.143496 0
M  V30 217 H 11.044756 -7.740586 -2.328333 0
M  V30 218 H 10.897139 -6.184025 -1.439008 0
M  V30 219 H 13.048002 -6.680226 -0.211434 0
M  V30 220 H 13.198291 -8.234870 -1.104096 0
M  V30 221 H 13.275696 -6.970420 -3.290720 0
M  V30 222 H 13.123746 -5.416292 -2.397931 0
M  V30 223 H 15.282797 -5.905275 -1.177394 0
M  V30 224 H 15.435469 -7.459348 -2.070591 0
M  V30 225 H 16.841086 -5.664236 -3.141991 0
M  V30 226 H 15.538130 -6.189015 -4.266326 0
M  V30 227 H 15.384924 -4.632229 -3.371470 0
M  V30 END ATOM
M  V30 BEGIN BOND
M  V30 1 1 2 1
M  V30 2 2 3 1
M  V30 3 1 1 4
M  V30 4 2 5 2
M  V30 5 1 2 6
M  V30 6 1 3 7
M  V30 7 1 8 3
M  V30 8 1 9 4
M  V30 9 1 10 5
M  V30 10 1 5 122
M  V30 11 1 6 11
M  V30 12 2 7 10
M  V30 13 1 7 123
M  V30 14 1 12 8
M  V30 15 1 9 13
M  V30 16 1 9 14
M  V30 17 1 9 124
M  V30 18 1 10 15
M  V30 19 1 11 16
M  V30 20 2 11 17
M  V30 21 1 18 12
M  V30 22 2 12 19
M  V30 23 1 13 20
M  V30 24 1 13 21
M  V30 25 1 13 125
M  V30 26 1 22 14
M  V30 27 1 23 15
M  V30 28 1 15 24
M  V30 29 1 15 126
M  V30 30 2 16 25
M  V30 31 1 16 26
M  V30 32 1 27 17
M  V30 33 1 17 127
M  V30 34 2 28 18
M  V30 35 1 18 29
M  V30 36 1 19 30
M  V30 37 1 19 128
M  V30 38 1 31 20
M  V30 39 1 21 32
M  V30 40 1 21 33
M  V30 41 1 21 129
M  V30 42 1 32 22
M  V30 43 1 22 34
M  V30 44 1 22 130
M  V30 45 1 35 23
M  V30 46 2 23 36
M  V30 47 1 24 37
M  V30 48 1 24 131
M  V30 49 1 25 38
M  V30 50 1 25 132
M  V30 51 2 38 27
M  V30 52 1 27 133
M  V30 53 1 39 28
M  V30 54 1 28 134
M  V30 55 2 39 30
M  V30 56 1 30 135
M  V30 57 1 31 40
M  V30 58 1 31 41
M  V30 59 1 31 136
M  V30 60 1 32 42
M  V30 61 1 32 137
M  V30 62 1 33 138
M  V30 63 1 34 43
M  V30 64 1 34 139
M  V30 65 1 34 140
M  V30 66 1 44 35
M  V30 67 1 35 141
M  V30 68 1 37 45
M  V30 69 2 37 46
M  V30 70 1 38 47
M  V30 71 1 48 39
M  V30 72 1 40 49
M  V30 73 1 40 142
M  V30 74 1 40 143
M  V30 75 1 50 41
M  V30 76 1 42 144
M  V30 77 1 43 145
M  V30 78 1 44 51
M  V30 79 1 52 44
M  V30 80 1 44 146
M  V30 81 1 45 53
M  V30 82 1 45 54
M  V30 83 1 45 147
M  V30 84 1 47 55
M  V30 85 1 47 56
M  V30 86 1 47 148
M  V30 87 1 57 48
M  V30 88 1 48 58
M  V30 89 1 48 149
M  V30 90 1 49 59
M  V30 91 1 49 60
M  V30 92 1 49 61
M  V30 93 1 59 50
M  V30 94 1 50 62
M  V30 95 1 50 150
M  V30 96 2 51 63
M  V30 97 1 51 64
M  V30 98 1 65 52
M  V30 99 2 52 66
M  V30 100 1 53 67
M  V30 101 1 53 151
M  V30 102 1 54 68
M  V30 103 1 54 152
M  V30 104 1 54 153
M  V30 105 1 55 65
M  V30 106 1 55 69
M  V30 107 1 55 154
M  V30 108 1 56 155
M  V30 109 1 57 67
M  V30 110 1 57 70
M  V30 111 1 57 156
M  V30 112 1 58 157
M  V30 113 1 59 71
M  V30 114 1 59 158
M  V30 115 1 60 159
M  V30 116 1 60 160
M  V30 117 1 60 161
M  V30 118 1 61 102
M  V30 119 1 61 162
M  V30 120 1 62 163
M  V30 121 1 62 164
M  V30 122 1 62 165
M  V30 123 1 72 63
M  V30 124 1 63 166
M  V30 125 2 64 73
M  V30 126 1 64 167
M  V30 127 1 65 168
M  V30 128 2 67 74
M  V30 129 1 68 75
M  V30 130 2 68 76
M  V30 131 1 77 69
M  V30 132 2 69 78
M  V30 133 1 70 79
M  V30 134 1 70 169
M  V30 135 1 71 170
M  V30 136 1 72 80
M  V30 137 2 81 72
M  V30 138 1 73 81
M  V30 139 1 73 171
M  V30 140 1 75 172
M  V30 141 1 75 173
M  V30 142 1 82 77
M  V30 143 1 77 174
M  V30 144 1 79 83
M  V30 145 2 79 84
M  V30 146 2 80 85
M  V30 147 1 80 86
M  V30 148 1 81 87
M  V30 149 1 85 82
M  V30 150 1 82 88
M  V30 151 1 82 175
M  V30 152 1 83 89
M  V30 153 1 83 90
M  V30 154 1 83 176
M  V30 155 1 91 85
M  V30 156 2 86 92
M  V30 157 1 86 93
M  V30 158 1 87 177
M  V30 159 1 88 94
M  V30 160 2 88 95
M  V30 161 1 89 96
M  V30 162 1 89 178
M  V30 163 1 89 179
M  V30 164 1 90 97
M  V30 165 1 90 180
M  V30 166 2 98 91
M  V30 167 1 91 181
M  V30 168 1 92 98
M  V30 169 1 92 103
M  V30 170 1 93 182
M  V30 171 1 94 183
M  V30 172 1 96 99
M  V30 173 1 96 100
M  V30 174 1 96 184
M  V30 175 1 97 185
M  V30 176 1 97 186
M  V30 177 1 97 187
M  V30 178 1 98 101
M  V30 179 1 99 188
M  V30 180 1 99 189
M  V30 181 1 99 190
M  V30 182 1 100 191
M  V30 183 1 100 192
M  V30 184 1 100 193
M  V30 185 1 101 194
M  V30 186 1 102 110
M  V30 187 1 102 195
M  V30 188 1 102 196
M  V30 189 1 103 104
M  V30 190 1 103 197
M  V30 191 1 103 198
M  V30 192 1 104 105
M  V30 193 1 104 199
M  V30 194 1 105 106
M  V30 195 1 105 200
M  V30 196 1 105 201
M  V30 197 1 106 107
M  V30 198 2 106 108
M  V30 199 1 106 109
M  V30 200 1 107 202
M  V30 201 1 109 203
M  V30 202 1 110 111
M  V30 203 1 110 204
M  V30 204 1 110 205
M  V30 205 1 111 112
M  V30 206 1 111 206
M  V30 207 1 112 113
M  V30 208 1 112 207
M  V30 209 1 112 208
M  V30 210 1 113 114
M  V30 211 1 113 209
M  V30 212 1 113 210
M  V30 213 1 114 115
M  V30 214 1 114 211
M  V30 215 1 114 212
M  V30 216 1 115 116
M  V30 217 1 115 213
M  V30 218 1 115 214
M  V30 219 1 116 117
M  V30 220 1 116 215
M  V30 221 1 116 216
M  V30 222 1 117 118
M  V30 223 1 117 217
M  V30 224 1 117 218
M  V30 225 1 118 119
M  V30 226 1 118 219
M  V30 227 1 118 220
M  V30 228 1 119 120
M  V30 229 1 119 221
M  V30 230 1 119 222
M  V30 231 1 120 121
M  V30 232 1 120 223
M  V30 233 1 120 224
M  V30 234 1 121 225
M  V30 235 1 121 226
M  V30 236 1 121 227
M  V30 END BOND
M  V30 END CTAB
M  END
