
  Chem3D Core 14.010291515093D

  0  0  0     0  0              0 V3000
M  V30 BEGIN CTAB
M  V30 COUNTS 102 106 0 0 0
M  V30 BEGIN ATOM
M  V30 1 O 3.511803 2.696433 -1.274895 0
M  V30 2 O -0.063265 0.075839 -0.709088 0
M  V30 3 O -4.182137 -0.750954 0.177428 0
M  V30 4 O 4.219892 -2.269884 0.200310 0
M  V30 5 O 2.856530 -1.307853 -2.700716 0
M  V30 6 O -7.084985 1.618571 -1.995303 0
M  V30 7 N 0.259617 2.314289 -0.788301 0
M  V30 8 N 2.695309 0.604579 -1.026901 0
M  V30 9 N -2.240206 0.195426 0.740010 0
M  V30 10 N -5.390134 1.397033 -0.709335 0
M  V30 11 N 2.987722 -3.382382 -2.045832 0
M  V30 12 N -6.567540 3.882094 -3.016391 0
M  V30 13 N -4.367828 5.229683 -2.466952 0
M  V30 14 C 1.105402 3.697157 -2.544197 0
M  V30 15 C 0.451427 4.593933 -1.468172 0
M  V30 16 C 1.208244 2.304396 -1.894063 0
M  V30 17 C 0.140538 3.731343 -3.747579 0
M  V30 18 C -0.833204 5.148701 -2.111431 0
M  V30 19 C 0.163990 3.668860 -0.271181 0
M  V30 20 C -1.222624 4.090431 -3.148303 0
M  V30 21 C 2.594452 1.921029 -1.378806 0
M  V30 22 C -0.306600 1.174376 -0.269635 0
M  V30 23 C -1.283362 1.306660 0.908190 0
M  V30 24 C -0.607726 1.238993 2.316002 0
M  V30 25 C 3.933543 -0.024917 -0.548597 0
M  V30 26 C -0.652447 2.618138 3.015424 0
M  V30 27 C -1.346334 0.251500 3.251871 0
M  V30 28 C 0.866804 0.789333 2.237431 0
M  V30 29 C -4.497158 2.303419 1.435595 0
M  V30 30 C -4.170510 1.643947 0.072078 0
M  V30 31 C -3.544962 0.261863 0.328483 0
M  V30 32 C 4.268260 0.441650 0.884202 0
M  V30 33 C -5.684649 1.623510 2.145463 0
M  V30 34 C -4.736328 3.819462 1.349606 0
M  V30 35 C 3.806020 -1.560700 -0.694134 0
M  V30 36 C -5.933973 2.232226 3.533359 0
M  V30 37 C -4.997605 4.432636 2.733718 0
M  V30 38 C -6.179297 3.743219 3.427876 0
M  V30 39 C 3.336383 -4.477819 -1.174323 0
M  V30 40 C 5.758162 0.309811 1.243999 0
M  V30 41 C 3.710628 -5.697736 -1.972545 0
M  V30 42 C 4.780284 -4.882187 -1.289290 0
M  V30 43 C 3.225459 -2.052819 -1.820010 0
M  V30 44 C 6.031184 0.748643 2.689247 0
M  V30 45 C -6.055311 2.154014 -1.638187 0
M  V30 46 C -5.743009 3.374701 -2.187527 0
M  V30 47 C -4.634208 4.104748 -1.948259 0
M  V30 48 C -6.331151 5.001624 -3.553989 0
M  V30 49 C -5.216799 5.691406 -3.278729 0
M  V30 50 H 2.100817 4.075948 -2.872399 0
M  V30 51 H 1.117058 5.433271 -1.153989 0
M  V30 52 H 1.905663 -0.009453 -1.232369 0
M  V30 53 H -1.866991 -0.749988 0.824877 0
M  V30 54 H -5.850065 0.504853 -0.515610 0
M  V30 55 H 2.520826 -3.534523 -2.930455 0
M  V30 56 H 0.932664 1.532034 -2.649751 0
M  V30 57 H 0.116960 2.789031 -4.337892 0
M  V30 58 H 0.448166 4.547881 -4.445078 0
M  V30 59 H -1.643502 5.363038 -1.380633 0
M  V30 60 H -0.601631 6.104358 -2.640536 0
M  V30 61 H 0.956328 3.801258 0.502143 0
M  V30 62 H -0.820336 3.918917 0.174208 0
M  V30 63 H -1.942384 4.470367 -3.908307 0
M  V30 64 H -1.669192 3.200425 -2.645621 0
M  V30 65 H -1.821299 2.268322 0.824094 0
M  V30 66 H 4.766138 0.270116 -1.232700 0
M  V30 67 H -0.203776 2.575408 4.033451 0
M  V30 68 H -0.083964 3.390036 2.456092 0
M  V30 69 H -1.694553 2.989367 3.135560 0
M  V30 70 H -0.899224 0.240969 4.271535 0
M  V30 71 H -1.291161 -0.794859 2.875730 0
M  V30 72 H -2.419378 0.521942 3.374005 0
M  V30 73 H 1.483402 1.508814 1.654525 0
M  V30 74 H 1.329415 0.723694 3.247912 0
M  V30 75 H 0.964156 -0.216888 1.771333 0
M  V30 76 H -3.618608 2.171236 2.111037 0
M  V30 77 H -3.404507 2.147049 -0.544158 0
M  V30 78 H 3.997727 1.516894 1.005858 0
M  V30 79 H 3.637819 -0.112788 1.617156 0
M  V30 80 H -6.609211 1.736933 1.532212 0
M  V30 81 H -5.494601 0.530010 2.257940 0
M  V30 82 H -3.840708 4.319482 0.909971 0
M  V30 83 H -5.611562 4.023582 0.690191 0
M  V30 84 H -6.812523 1.738342 4.013522 0
M  V30 85 H -5.051615 2.041098 4.189680 0
M  V30 86 H -5.202393 5.525378 2.632121 0
M  V30 87 H -4.083768 4.329321 3.366309 0
M  V30 88 H -7.113719 3.930424 2.847102 0
M  V30 89 H -6.330376 4.177299 4.445078 0
M  V30 90 H 2.706263 -4.499416 -0.289555 0
M  V30 91 H 6.105446 -0.741127 1.114367 0
M  V30 92 H 6.364593 0.940198 0.550160 0
M  V30 93 H 3.465798 -6.667137 -1.540844 0
M  V30 94 H 3.655663 -5.650126 -3.059069 0
M  V30 95 H 5.439916 -4.285114 -1.917041 0
M  V30 96 H 5.245897 -5.302537 -0.399229 0
M  V30 97 H 7.113719 0.657515 2.937560 0
M  V30 98 H 5.735144 1.810326 2.850990 0
M  V30 99 H 5.463615 0.119680 3.412724 0
M  V30 100 H -3.833885 3.800619 -1.273149 0
M  V30 101 H -7.079896 5.393211 -4.261932 0
M  V30 102 H -5.008153 6.667137 -3.745709 0
M  V30 END ATOM
M  V30 BEGIN BOND
M  V30 1 2 1 21
M  V30 2 2 2 22
M  V30 3 2 3 31
M  V30 4 2 4 35
M  V30 5 2 5 43
M  V30 6 2 6 45
M  V30 7 1 7 16
M  V30 8 1 19 7
M  V30 9 1 7 22
M  V30 10 1 8 21
M  V30 11 1 25 8
M  V30 12 1 8 52
M  V30 13 1 23 9
M  V30 14 1 9 31
M  V30 15 1 9 53
M  V30 16 1 30 10
M  V30 17 1 10 45
M  V30 18 1 10 54
M  V30 19 1 11 39
M  V30 20 1 11 43
M  V30 21 1 11 55
M  V30 22 2 46 12
M  V30 23 1 12 48
M  V30 24 2 13 47
M  V30 25 1 49 13
M  V30 26 1 15 14
M  V30 27 1 16 14
M  V30 28 1 17 14
M  V30 29 1 14 50
M  V30 30 1 18 15
M  V30 31 1 15 19
M  V30 32 1 15 51
M  V30 33 1 16 21
M  V30 34 1 16 56
M  V30 35 1 17 20
M  V30 36 1 17 57
M  V30 37 1 17 58
M  V30 38 1 20 18
M  V30 39 1 18 59
M  V30 40 1 18 60
M  V30 41 1 19 61
M  V30 42 1 19 62
M  V30 43 1 20 63
M  V30 44 1 20 64
M  V30 45 1 22 23
M  V30 46 1 23 24
M  V30 47 1 23 65
M  V30 48 1 24 26
M  V30 49 1 24 27
M  V30 50 1 24 28
M  V30 51 1 25 32
M  V30 52 1 25 35
M  V30 53 1 25 66
M  V30 54 1 26 67
M  V30 55 1 26 68
M  V30 56 1 26 69
M  V30 57 1 27 70
M  V30 58 1 27 71
M  V30 59 1 27 72
M  V30 60 1 28 73
M  V30 61 1 28 74
M  V30 62 1 28 75
M  V30 63 1 29 30
M  V30 64 1 29 33
M  V30 65 1 29 34
M  V30 66 1 29 76
M  V30 67 1 30 31
M  V30 68 1 30 77
M  V30 69 1 32 40
M  V30 70 1 32 78
M  V30 71 1 32 79
M  V30 72 1 33 36
M  V30 73 1 33 80
M  V30 74 1 33 81
M  V30 75 1 37 34
M  V30 76 1 34 82
M  V30 77 1 34 83
M  V30 78 1 35 43
M  V30 79 1 36 38
M  V30 80 1 36 84
M  V30 81 1 36 85
M  V30 82 1 38 37
M  V30 83 1 37 86
M  V30 84 1 37 87
M  V30 85 1 38 88
M  V30 86 1 38 89
M  V30 87 1 39 41
M  V30 88 1 39 42
M  V30 89 1 39 90
M  V30 90 1 40 44
M  V30 91 1 40 91
M  V30 92 1 40 92
M  V30 93 1 41 42
M  V30 94 1 41 93
M  V30 95 1 41 94
M  V30 96 1 42 95
M  V30 97 1 42 96
M  V30 98 1 44 97
M  V30 99 1 44 98
M  V30 100 1 44 99
M  V30 101 1 45 46
M  V30 102 1 46 47
M  V30 103 1 47 100
M  V30 104 2 48 49
M  V30 105 1 48 101
M  V30 106 1 49 102
M  V30 END BOND
M  V30 END CTAB
M  END
