
  Chem3D Core 14.010291515233D

  0  0  0     0  0              0 V3000
M  V30 BEGIN CTAB
M  V30 COUNTS 123 127 0 0 0
M  V30 BEGIN ATOM
M  V30 1 O -2.768639 -4.944294 4.251177 0
M  V30 2 O 0.080832 -6.240968 2.441904 0
M  V30 3 O 1.167252 -5.579428 -2.575792 0
M  V30 4 O 2.601636 -3.030594 -0.428692 0
M  V30 5 O 2.390280 -6.777954 -4.124130 0
M  V30 6 O -2.074751 -2.918759 1.778667 0
M  V30 7 O -4.045134 -3.266237 5.097380 0
M  V30 8 O 0.187941 -8.743695 -4.012758 0
M  V30 9 O 0.422367 -6.908090 -0.223633 0
M  V30 10 O 0.014994 -8.458585 3.032106 0
M  V30 11 N -1.830575 -2.981856 4.695036 0
M  V30 12 N -0.858655 -5.234159 -4.685628 0
M  V30 13 N -2.664538 3.243118 4.656166 0
M  V30 14 N -3.087464 4.936555 5.742116 0
M  V30 15 N 0.855144 7.273431 5.003617 0
M  V30 16 C -0.704675 -3.712899 4.142245 0
M  V30 17 C -1.392359 -5.125433 3.992619 0
M  V30 18 C -0.030761 -2.982831 2.943482 0
M  V30 19 C -1.252491 -5.873759 2.652723 0
M  V30 20 C 1.646479 -3.676843 -1.222544 0
M  V30 21 C -0.233268 -2.538828 0.302292 0
M  V30 22 C -0.870940 -2.839618 1.668345 0
M  V30 23 C 0.383632 -3.811035 -0.332562 0
M  V30 24 C 2.148660 -5.088321 -1.687181 0
M  V30 25 C -0.875213 -6.025227 5.136206 0
M  V30 26 C -2.982889 -3.690764 4.708176 0
M  V30 27 C -1.686707 -1.639548 5.237761 0
M  V30 28 C 1.448126 -3.381941 2.793426 0
M  V30 29 C -2.276938 -6.982855 2.343519 0
M  V30 30 C 2.633270 -6.104564 -0.594298 0
M  V30 31 C 1.302731 -2.800692 -2.438709 0
M  V30 32 C 1.354988 -6.843798 -3.171186 0
M  V30 33 C -1.286465 -1.883443 -0.617680 0
M  V30 34 C -2.337087 -0.573354 4.340441 0
M  V30 35 C 0.042903 -7.371336 -3.715089 0
M  V30 36 C -0.432066 -6.612742 -4.958899 0
M  V30 37 C 1.554836 -6.854835 0.208165 0
M  V30 38 C 1.738529 -7.657788 1.514577 0
M  V30 39 C 0.745179 -6.724351 -5.949263 0
M  V30 40 C -3.606294 -6.491226 1.739817 0
M  V30 41 C 0.516129 -7.529643 2.438393 0
M  V30 42 C 3.817146 -5.546842 0.217255 0
M  V30 43 C 2.076566 -6.235000 -5.377866 0
M  V30 44 C -2.188296 0.834233 4.939273 0
M  V30 45 C 2.986912 -7.509075 2.390091 0
M  V30 46 C 3.692936 -2.426187 -1.091055 0
M  V30 47 C 2.265791 -4.719924 -5.416517 0
M  V30 48 C -2.824101 1.913914 4.050159 0
M  V30 49 C -1.297801 -4.539656 -5.891419 0
M  V30 50 C -1.924016 -5.152765 -3.691500 0
M  V30 51 C -1.642284 3.974081 4.522867 0
M  V30 52 C -3.530563 3.808956 5.379119 0
M  V30 53 C -1.926641 5.079666 5.238762 0
M  V30 54 C -1.144367 6.162833 5.414570 0
M  V30 55 C -1.551602 7.207703 6.162084 0
M  V30 56 C 0.082446 6.279075 4.867104 0
M  V30 57 C -0.742321 8.266929 6.314271 0
M  V30 58 C 0.453915 8.243158 5.709118 0
M  V30 59 H -0.678788 -9.134395 -4.145126 0
M  V30 60 H 0.061589 -3.769829 4.953294 0
M  V30 61 H 0.058065 -1.905307 3.241799 0
M  V30 62 H -1.453845 -5.144782 1.838254 0
M  V30 63 H 0.550880 -1.772759 0.507721 0
M  V30 64 H -0.420757 -4.355599 -0.876195 0
M  V30 65 H 0.674216 -4.478281 0.504429 0
M  V30 66 H 3.045666 -4.904564 -2.328539 0
M  V30 67 H -1.069952 -5.569793 6.134244 0
M  V30 68 H -1.370401 -7.020990 5.144126 0
M  V30 69 H 0.222204 -6.198119 5.067858 0
M  V30 70 H -2.147866 -1.610273 6.252787 0
M  V30 71 H -0.609860 -1.398540 5.391601 0
M  V30 72 H 1.985254 -2.751475 2.052375 0
M  V30 73 H 2.001331 -3.251576 3.751464 0
M  V30 74 H 1.584976 -4.441220 2.504010 0
M  V30 75 H -1.864400 -7.669434 1.564032 0
M  V30 76 H -2.496018 -7.591833 3.249910 0
M  V30 77 H 3.131330 -6.946007 -1.143463 0
M  V30 78 H 1.156716 -1.735459 -2.158857 0
M  V30 79 H 2.110835 -2.806119 -3.201476 0
M  V30 80 H 0.372014 -3.140750 -2.944970 0
M  V30 81 H 1.669422 -7.580393 -2.402201 0
M  V30 82 H -0.861635 -1.481431 -1.559559 0
M  V30 83 H -1.771686 -1.015056 -0.115124 0
M  V30 84 H -2.086170 -2.602322 -0.907948 0
M  V30 85 H -1.870555 -0.588970 3.328382 0
M  V30 86 H -3.420354 -0.798762 4.202542 0
M  V30 87 H -0.727335 -7.368045 -2.911120 0
M  V30 88 H -1.307175 -7.163638 -5.387446 0
M  V30 89 H 1.733175 -8.720043 1.157013 0
M  V30 90 H 0.534268 -6.226818 -6.920543 0
M  V30 91 H 0.867969 -7.795507 -6.239810 0
M  V30 92 H -4.253959 -7.354307 1.459719 0
M  V30 93 H -4.201906 -5.869473 2.441710 0
M  V30 94 H -3.438626 -5.893732 0.814290 0
M  V30 95 H 4.491107 -6.338979 0.603985 0
M  V30 96 H 4.500501 -4.938897 -0.414590 0
M  V30 97 H 3.483776 -4.925842 1.076011 0
M  V30 98 H 2.879895 -6.625585 -6.058540 0
M  V30 99 H -2.666929 0.860762 5.947309 0
M  V30 100 H -1.104691 1.063095 5.078305 0
M  V30 101 H 2.898463 -8.132109 3.309977 0
M  V30 102 H 3.902270 -7.880938 1.880177 0
M  V30 103 H 3.128012 -6.462489 2.738689 0
M  V30 104 H 4.462075 -2.189891 -0.321855 0
M  V30 105 H 4.150328 -3.099012 -1.845061 0
M  V30 106 H 3.386746 -1.463936 -1.555003 0
M  V30 107 H 2.251476 -4.342283 -6.464583 0
M  V30 108 H 1.462601 -4.179823 -4.879562 0
M  V30 109 H 3.239873 -4.418264 -4.967733 0
M  V30 110 H -3.905075 1.687327 3.894734 0
M  V30 111 H -2.353437 1.898878 3.038877 0
M  V30 112 H -1.637361 -3.504616 -5.658339 0
M  V30 113 H -0.472815 -4.398578 -6.621589 0
M  V30 114 H -2.135722 -5.073472 -6.395225 0
M  V30 115 H -2.254172 -4.099796 -3.538961 0
M  V30 116 H -1.587726 -5.474752 -2.683291 0
M  V30 117 H -2.812667 -5.756408 -3.985711 0
M  V30 118 H -0.768117 3.677334 3.935461 0
M  V30 119 H -4.500501 3.371681 5.638905 0
M  V30 120 H -2.534719 7.227785 6.660434 0
M  V30 121 H 0.511264 5.481350 4.238624 0
M  V30 122 H -1.050539 9.134395 6.920543 0
M  V30 123 H 1.145452 9.096297 5.812506 0
M  V30 END ATOM
M  V30 BEGIN BOND
M  V30 1 1 1 17
M  V30 2 1 1 26
M  V30 3 1 2 19
M  V30 4 1 2 41
M  V30 5 1 24 3
M  V30 6 1 32 3
M  V30 7 1 20 4
M  V30 8 1 4 46
M  V30 9 1 32 5
M  V30 10 1 43 5
M  V30 11 2 6 22
M  V30 12 2 7 26
M  V30 13 1 35 8
M  V30 14 1 8 59
M  V30 15 2 9 37
M  V30 16 2 10 41
M  V30 17 1 16 11
M  V30 18 1 11 26
M  V30 19 1 11 27
M  V30 20 1 36 12
M  V30 21 1 12 49
M  V30 22 1 12 50
M  V30 23 1 13 48
M  V30 24 1 51 13
M  V30 25 1 13 52
M  V30 26 2 52 14
M  V30 27 1 53 14
M  V30 28 2 56 15
M  V30 29 1 15 58
M  V30 30 1 16 17
M  V30 31 1 16 18
M  V30 32 1 16 60
M  V30 33 1 17 19
M  V30 34 1 17 25
M  V30 35 1 18 22
M  V30 36 1 18 28
M  V30 37 1 18 61
M  V30 38 1 19 29
M  V30 39 1 19 62
M  V30 40 1 20 23
M  V30 41 1 20 24
M  V30 42 1 20 31
M  V30 43 1 21 22
M  V30 44 1 21 23
M  V30 45 1 21 33
M  V30 46 1 21 63
M  V30 47 1 23 64
M  V30 48 1 23 65
M  V30 49 1 24 30
M  V30 50 1 24 66
M  V30 51 1 25 67
M  V30 52 1 25 68
M  V30 53 1 25 69
M  V30 54 1 27 34
M  V30 55 1 27 70
M  V30 56 1 27 71
M  V30 57 1 28 72
M  V30 58 1 28 73
M  V30 59 1 28 74
M  V30 60 1 29 40
M  V30 61 1 29 75
M  V30 62 1 29 76
M  V30 63 1 30 37
M  V30 64 1 30 42
M  V30 65 1 30 77
M  V30 66 1 31 78
M  V30 67 1 31 79
M  V30 68 1 31 80
M  V30 69 1 32 35
M  V30 70 1 32 81
M  V30 71 1 33 82
M  V30 72 1 33 83
M  V30 73 1 33 84
M  V30 74 1 34 44
M  V30 75 1 34 85
M  V30 76 1 34 86
M  V30 77 1 35 36
M  V30 78 1 35 87
M  V30 79 1 36 39
M  V30 80 1 36 88
M  V30 81 1 37 38
M  V30 82 1 38 41
M  V30 83 1 38 45
M  V30 84 1 38 89
M  V30 85 1 39 43
M  V30 86 1 39 90
M  V30 87 1 39 91
M  V30 88 1 40 92
M  V30 89 1 40 93
M  V30 90 1 40 94
M  V30 91 1 42 95
M  V30 92 1 42 96
M  V30 93 1 42 97
M  V30 94 1 43 47
M  V30 95 1 43 98
M  V30 96 1 44 48
M  V30 97 1 44 99
M  V30 98 1 44 100
M  V30 99 1 45 101
M  V30 100 1 45 102
M  V30 101 1 45 103
M  V30 102 1 46 104
M  V30 103 1 46 105
M  V30 104 1 46 106
M  V30 105 1 47 107
M  V30 106 1 47 108
M  V30 107 1 47 109
M  V30 108 1 48 110
M  V30 109 1 48 111
M  V30 110 1 49 112
M  V30 111 1 49 113
M  V30 112 1 49 114
M  V30 113 1 50 115
M  V30 114 1 50 116
M  V30 115 1 50 117
M  V30 116 2 53 51
M  V30 117 1 51 118
M  V30 118 1 52 119
M  V30 119 1 53 54
M  V30 120 2 55 54
M  V30 121 1 54 56
M  V30 122 1 57 55
M  V30 123 1 55 120
M  V30 124 1 56 121
M  V30 125 2 57 58
M  V30 126 1 57 122
M  V30 127 1 58 123
M  V30 END BOND
M  V30 END CTAB
M  END
