
  Chem3D Core 14.010291515253D

  0  0  0     0  0              0 V3000
M  V30 BEGIN CTAB
M  V30 COUNTS 69 74 0 0 0
M  V30 BEGIN ATOM
M  V30 1 O 5.220639 0.924925 -2.396883 0
M  V30 2 O 4.283032 0.196296 -0.567469 0
M  V30 3 N -1.164676 -2.330480 1.884976 0
M  V30 4 N -2.782550 -3.076228 0.839056 0
M  V30 5 N -2.469513 2.702028 3.334156 0
M  V30 6 N -4.303905 2.579219 2.461377 0
M  V30 7 C -2.003808 -1.381790 1.892068 0
M  V30 8 C -1.616118 -3.340422 1.261601 0
M  V30 9 C -3.036673 -1.892690 1.210961 0
M  V30 10 C 0.168188 -2.293333 2.510922 0
M  V30 11 C -1.019381 -4.687767 0.952155 0
M  V30 12 C -3.117411 0.647646 2.211298 0
M  V30 13 C -2.033152 -0.137920 2.384701 0
M  V30 14 C -4.137142 -1.158304 1.010190 0
M  V30 15 C -4.142217 0.089457 1.518923 0
M  V30 16 C -3.234353 1.918511 2.673503 0
M  V30 17 C 1.247413 -2.322714 1.452346 0
M  V30 18 C -0.485449 -4.737645 -0.488001 0
M  V30 19 C -5.306331 -1.727444 0.242186 0
M  V30 20 C -2.997552 3.834374 3.557264 0
M  V30 21 C -4.197007 3.727014 2.975738 0
M  V30 22 C 2.171938 -3.295390 1.411470 0
M  V30 23 C 1.291241 -1.386375 0.491554 0
M  V30 24 C 0.265723 -6.044070 -0.774124 0
M  V30 25 C -1.110345 2.400850 3.817705 0
M  V30 26 C 3.174564 -2.385116 -0.518462 0
M  V30 27 C 3.098502 -3.330837 0.441188 0
M  V30 28 C 2.226016 -1.426628 -0.470316 0
M  V30 29 C -2.640304 4.967612 4.177626 0
M  V30 30 C -5.078645 4.734397 2.989750 0
M  V30 31 C 4.074836 -2.441446 -1.532810 0
M  V30 32 C -3.519624 5.984972 4.196974 0
M  V30 33 C -4.724859 5.871981 3.610808 0
M  V30 34 C 4.685491 -1.390460 -2.146271 0
M  V30 35 C 4.302686 -3.676840 -2.036131 0
M  V30 36 C 5.384768 -1.619562 -3.279258 0
M  V30 37 C 5.032381 -3.893002 -3.138629 0
M  V30 38 C 5.558818 -2.848196 -3.783477 0
M  V30 39 C 4.680112 -0.099656 -1.678861 0
M  V30 40 H 5.410587 0.668655 -3.310050 0
M  V30 41 H 0.324808 -1.385374 3.134139 0
M  V30 42 H 0.261806 -3.146789 3.220649 0
M  V30 43 H -0.209086 -4.921340 1.677810 0
M  V30 44 H -1.797040 -5.475549 1.089322 0
M  V30 45 H -1.139862 0.187973 2.919689 0
M  V30 46 H -5.069926 0.651895 1.325820 0
M  V30 47 H -1.332632 -4.628058 -1.206606 0
M  V30 48 H 0.205573 -3.881077 -0.668968 0
M  V30 49 H -4.988006 -2.017284 -0.785138 0
M  V30 50 H -5.701174 -2.632564 0.757499 0
M  V30 51 H -6.149254 -1.008691 0.138470 0
M  V30 52 H 2.169129 -4.086877 2.179312 0
M  V30 53 H 0.525873 -0.592606 0.470424 0
M  V30 54 H 0.639769 -6.068339 -1.823635 0
M  V30 55 H 1.146516 -6.155038 -0.100751 0
M  V30 56 H -0.396082 -6.927793 -0.626639 0
M  V30 57 H -0.422653 2.198356 2.965656 0
M  V30 58 H -0.637856 3.244410 4.362477 0
M  V30 59 H -1.128014 1.565651 4.553851 0
M  V30 60 H 3.825743 -4.158839 0.493092 0
M  V30 61 H 2.139640 -0.670300 -1.269569 0
M  V30 62 H -1.662899 5.092236 4.666719 0
M  V30 63 H -6.063197 4.630952 2.506327 0
M  V30 64 H -3.248473 6.927793 4.701976 0
M  V30 65 H -5.430108 6.719632 3.639409 0
M  V30 66 H 3.825825 -4.582224 -1.622776 0
M  V30 67 H 5.900642 -0.822826 -3.838089 0
M  V30 68 H 5.164266 -4.912692 -3.538352 0
M  V30 69 H 6.149254 -3.005123 -4.701976 0
M  V30 END ATOM
M  V30 BEGIN BOND
M  V30 1 1 1 39
M  V30 2 1 1 40
M  V30 3 2 2 39
M  V30 4 1 3 7
M  V30 5 1 3 8
M  V30 6 1 3 10
M  V30 7 2 8 4
M  V30 8 1 4 9
M  V30 9 1 5 16
M  V30 10 1 5 20
M  V30 11 1 5 25
M  V30 12 2 16 6
M  V30 13 1 6 21
M  V30 14 1 9 7
M  V30 15 2 13 7
M  V30 16 1 8 11
M  V30 17 2 9 14
M  V30 18 1 10 17
M  V30 19 1 10 41
M  V30 20 1 10 42
M  V30 21 1 11 18
M  V30 22 1 11 43
M  V30 23 1 11 44
M  V30 24 1 12 13
M  V30 25 2 15 12
M  V30 26 1 12 16
M  V30 27 1 13 45
M  V30 28 1 14 15
M  V30 29 1 14 19
M  V30 30 1 15 46
M  V30 31 1 17 22
M  V30 32 2 17 23
M  V30 33 1 18 24
M  V30 34 1 18 47
M  V30 35 1 18 48
M  V30 36 1 19 49
M  V30 37 1 19 50
M  V30 38 1 19 51
M  V30 39 1 21 20
M  V30 40 2 29 20
M  V30 41 2 21 30
M  V30 42 2 22 27
M  V30 43 1 22 52
M  V30 44 1 28 23
M  V30 45 1 23 53
M  V30 46 1 24 54
M  V30 47 1 24 55
M  V30 48 1 24 56
M  V30 49 1 25 57
M  V30 50 1 25 58
M  V30 51 1 25 59
M  V30 52 1 27 26
M  V30 53 2 26 28
M  V30 54 1 26 31
M  V30 55 1 27 60
M  V30 56 1 28 61
M  V30 57 1 32 29
M  V30 58 1 29 62
M  V30 59 1 30 33
M  V30 60 1 30 63
M  V30 61 1 31 34
M  V30 62 2 31 35
M  V30 63 2 33 32
M  V30 64 1 32 64
M  V30 65 1 33 65
M  V30 66 2 34 36
M  V30 67 1 34 39
M  V30 68 1 37 35
M  V30 69 1 35 66
M  V30 70 1 36 38
M  V30 71 1 36 67
M  V30 72 2 38 37
M  V30 73 1 37 68
M  V30 74 1 38 69
M  V30 END BOND
M  V30 END CTAB
M  END
