
  Chem3D Core 14.010291515273D

  0  0  0     0  0              0 V3000
M  V30 BEGIN CTAB
M  V30 COUNTS 34 36 0 0 0
M  V30 BEGIN ATOM
M  V30 1 Cl -1.581950 4.216896 -0.908774 0
M  V30 2 O -0.433969 -3.492283 1.228266 0
M  V30 3 O -2.738404 -3.627662 0.127677 0
M  V30 4 N -2.971266 -1.383412 -0.275338 0
M  V30 5 N -0.084791 -1.758047 -0.378226 0
M  V30 6 C -2.454927 -0.113613 -0.313011 0
M  V30 7 C -1.142725 0.286040 -0.393377 0
M  V30 8 C -0.016010 -0.492845 -0.440275 0
M  V30 9 C -0.939039 -2.259987 0.704261 0
M  V30 10 C -2.304507 -2.500499 0.142524 0
M  V30 11 C 1.297823 -0.116920 -0.537442 0
M  V30 12 C -0.980537 1.609972 -0.643543 0
M  V30 13 C -3.405190 0.852676 -0.251342 0
M  V30 14 C -4.382913 -1.627319 -0.646408 0
M  V30 15 C -1.933340 2.550202 -0.610722 0
M  V30 16 C -3.183612 2.166323 -0.362981 0
M  V30 17 C 1.794507 1.045512 -0.055005 0
M  V30 18 C 2.250892 -0.946957 -1.030012 0
M  V30 19 C 3.087868 1.398372 -0.132751 0
M  V30 20 C 3.549762 -0.618834 -1.124780 0
M  V30 21 C 3.980458 0.570105 -0.687300 0
M  V30 22 H -0.964248 -4.216896 0.882488 0
M  V30 23 H -0.987406 -1.552448 1.564115 0
M  V30 24 H -0.026588 2.029235 -0.983844 0
M  V30 25 H -4.472372 0.635832 -0.085831 0
M  V30 26 H -5.046907 -1.579998 0.247422 0
M  V30 27 H -4.740826 -0.951155 -1.454989 0
M  V30 28 H -4.532938 -2.619810 -1.125090 0
M  V30 29 H -4.011923 2.892795 -0.312184 0
M  V30 30 H 1.182190 1.742564 0.540198 0
M  V30 31 H 2.012453 -1.943106 -1.442056 0
M  V30 32 H 3.432674 2.352907 0.300831 0
M  V30 33 H 4.272500 -1.327842 -1.564115 0
M  V30 34 H 5.046907 0.842617 -0.745588 0
M  V30 END ATOM
M  V30 BEGIN BOND
M  V30 1 1 1 15
M  V30 2 1 2 9
M  V30 3 1 2 22
M  V30 4 2 3 10
M  V30 5 1 6 4
M  V30 6 1 4 10
M  V30 7 1 4 14
M  V30 8 2 5 8
M  V30 9 1 9 5
M  V30 10 1 7 6
M  V30 11 2 6 13
M  V30 12 1 7 8
M  V30 13 2 12 7
M  V30 14 1 8 11
M  V30 15 1 10 9
M  V30 16 1 9 23
M  V30 17 1 11 17
M  V30 18 2 11 18
M  V30 19 1 15 12
M  V30 20 1 12 24
M  V30 21 1 13 16
M  V30 22 1 13 25
M  V30 23 1 14 26
M  V30 24 1 14 27
M  V30 25 1 14 28
M  V30 26 2 15 16
M  V30 27 1 16 29
M  V30 28 2 17 19
M  V30 29 1 17 30
M  V30 30 1 20 18
M  V30 31 1 18 31
M  V30 32 1 19 21
M  V30 33 1 19 32
M  V30 34 2 21 20
M  V30 35 1 20 33
M  V30 36 1 21 34
M  V30 END BOND
M  V30 END CTAB
M  END
