
  Chem3D Core 15.008171512483D

160163  0  0  0  0  0  0  0  0999 V2000
   -7.3039    0.7607    2.2639 O   0  0  0  0  0  0  0  0  0  0  0  0
   -8.8970    1.8970    3.1843 O   0  0  0  0  0  0  0  0  0  0  0  0
   -6.8736    2.1967    4.5964 O   0  0  0  0  0  0  0  0  0  0  0  0
   -2.7181    3.8938    0.6922 O   0  0  0  0  0  0  0  0  0  0  0  0
   -5.3824    4.3395    4.3875 O   0  0  0  0  0  0  0  0  0  0  0  0
   -4.5437   -0.2053    3.5595 O   0  0  0  0  0  0  0  0  0  0  0  0
   -3.7669    2.8026    2.3992 O   0  0  0  0  0  0  0  0  0  0  0  0
    5.2513    3.0808   -1.5201 O   0  0  0  0  0  0  0  0  0  0  0  0
   -1.0627   -0.0131    0.6424 O   0  0  0  0  0  0  0  0  0  0  0  0
    2.6639    0.5809   -1.3862 O   0  0  0  0  0  0  0  0  0  0  0  0
    5.8370    3.8291   -3.5923 O   0  0  0  0  0  0  0  0  0  0  0  0
   -0.6613   -4.9252   -4.0734 O   0  0  0  0  0  0  0  0  0  0  0  0
    1.1998   -3.5371   -1.3701 O   0  0  0  0  0  0  0  0  0  0  0  0
    1.3569   -6.0304   -1.9933 O   0  0  0  0  0  0  0  0  0  0  0  0
    7.9146    5.5121    0.3718 O   0  0  0  0  0  0  0  0  0  0  0  0
    9.5679    3.6905   -1.1818 O   0  0  0  0  0  0  0  0  0  0  0  0
   -5.9472    4.6743    2.2821 N   0  0  0  0  0  0  0  0  0  0  0  0
   -7.6801    2.1163    2.4667 C   0  0  0  0  0  0  0  0  0  0  0  0
   -6.7859    2.8089    3.5425 C   0  0  0  0  0  0  0  0  0  0  0  0
   -6.1884    0.6309    1.4355 C   0  0  0  0  0  0  0  0  0  0  0  0
   -8.0408    2.7613    1.1260 C   0  0  0  0  0  0  0  0  0  0  0  0
   -6.0294    3.9378    3.4392 C   0  0  0  0  0  0  0  0  0  0  0  0
   -6.5415    1.0583    0.0149 C   0  0  0  0  0  0  0  0  0  0  0  0
   -6.9548    2.5324    0.0585 C   0  0  0  0  0  0  0  0  0  0  0  0
   -4.6436    4.9408    1.6448 C   0  0  0  0  0  0  0  0  0  0  0  0
   -5.6424   -0.7961    1.5045 C   0  0  0  0  0  0  0  0  0  0  0  0
   -3.6700    3.7537    1.6591 C   0  0  0  0  0  0  0  0  0  0  0  0
   -1.7827    2.8624    0.5063 C   0  0  0  0  0  0  0  0  0  0  0  0
   -5.2605   -1.2433    2.9248 C   0  0  0  0  0  0  0  0  0  0  0  0
   -9.3931    2.2655    0.5625 C   0  0  0  0  0  0  0  0  0  0  0  0
   -6.8742    5.7903    2.0953 C   0  0  0  0  0  0  0  0  0  0  0  0
   -3.9792    6.2151    2.1945 C   0  0  0  0  0  0  0  0  0  0  0  0
   -0.5518    3.4738   -0.2061 C   0  0  0  0  0  0  0  0  0  0  0  0
   -6.2944    7.0824    2.6928 C   0  0  0  0  0  0  0  0  0  0  0  0
   -4.4763   -2.5478    2.8337 C   0  0  0  0  0  0  0  0  0  0  0  0
   -2.4575    1.6954   -0.2372 C   0  0  0  0  0  0  0  0  0  0  0  0
   -4.9340    7.4103    2.0632 C   0  0  0  0  0  0  0  0  0  0  0  0
    0.6814    2.5433   -0.1770 C   0  0  0  0  0  0  0  0  0  0  0  0
   -1.6814    0.3844   -0.3187 C   0  0  0  0  0  0  0  0  0  0  0  0
    2.0507    3.2019    0.1025 C   0  0  0  0  0  0  0  0  0  0  0  0
   -3.1705   -2.5299    2.5016 C   0  0  0  0  0  0  0  0  0  0  0  0
   -1.7334   -0.3784   -1.6454 C   0  0  0  0  0  0  0  0  0  0  0  0
   -0.8982    3.9243   -1.6392 C   0  0  0  0  0  0  0  0  0  0  0  0
    3.6653    1.4362   -0.9023 C   0  0  0  0  0  0  0  0  0  0  0  0
    4.0902    2.4453   -1.9732 C   0  0  0  0  0  0  0  0  0  0  0  0
    3.1599    2.1573    0.3554 C   0  0  0  0  0  0  0  0  0  0  0  0
   -5.3093   -3.7884    3.0583 C   0  0  0  0  0  0  0  0  0  0  0  0
    2.5428    4.1890   -0.9664 C   0  0  0  0  0  0  0  0  0  0  0  0
    2.9821    3.4692   -2.2482 C   0  0  0  0  0  0  0  0  0  0  0  0
   -4.3490   -0.4265    4.9385 C   0  0  0  0  0  0  0  0  0  0  0  0
   -0.8931   -1.6374   -1.6740 C   0  0  0  0  0  0  0  0  0  0  0  0
    6.0473    3.7472   -2.4024 C   0  0  0  0  0  0  0  0  0  0  0  0
    7.2704    4.3489   -1.6858 C   0  0  0  0  0  0  0  0  0  0  0  0
   -2.3601   -3.5825    2.2920 C   0  0  0  0  0  0  0  0  0  0  0  0
   -0.2507   -2.1613   -2.7345 C   0  0  0  0  0  0  0  0  0  0  0  0
    0.4972   -3.4766   -2.6001 C   0  0  0  0  0  0  0  0  0  0  0  0
   -3.1734   -0.7738   -2.0124 C   0  0  0  0  0  0  0  0  0  0  0  0
   -0.4475   -4.6820   -2.6982 C   0  0  0  0  0  0  0  0  0  0  0  0
    0.1517   -5.9029   -1.9772 C   0  0  0  0  0  0  0  0  0  0  0  0
    6.9091    4.7274   -0.2377 C   0  0  0  0  0  0  0  0  0  0  0  0
    8.3513    3.2588   -1.7553 C   0  0  0  0  0  0  0  0  0  0  0  0
   -1.0736   -3.4243    1.9304 C   0  0  0  0  0  0  0  0  0  0  0  0
    7.7145    5.6055   -2.4641 C   0  0  0  0  0  0  0  0  0  0  0  0
   -0.7251   -6.9304   -1.2554 C   0  0  0  0  0  0  0  0  0  0  0  0
   -0.2511   -1.5572   -4.1188 C   0  0  0  0  0  0  0  0  0  0  0  0
    3.1657   -0.5762   -2.0192 C   0  0  0  0  0  0  0  0  0  0  0  0
   -0.1992   -4.3864    1.5894 C   0  0  0  0  0  0  0  0  0  0  0  0
   -0.0178   -7.6151   -0.0575 C   0  0  0  0  0  0  0  0  0  0  0  0
    0.5969   -6.6980    1.0218 C   0  0  0  0  0  0  0  0  0  0  0  0
   -0.4138   -5.7115    1.5581 C   0  0  0  0  0  0  0  0  0  0  0  0
   -2.1426   -6.4499   -0.8908 C   0  0  0  0  0  0  0  0  0  0  0  0
   -1.8060   -5.6952   -4.3582 C   0  0  0  0  0  0  0  0  0  0  0  0
    1.1703   -7.5204    2.1881 C   0  0  0  0  0  0  0  0  0  0  0  0
   -5.3940    1.3099    1.8074 H   0  0  0  0  0  0  0  0  0  0  0  0
   -1.4463    2.5278    1.5170 H   0  0  0  0  0  0  0  0  0  0  0  0
   -8.6525    1.4642    4.0089 H   0  0  0  0  0  0  0  0  0  0  0  0
    1.8230   -4.2699   -1.4073 H   0  0  0  0  0  0  0  0  0  0  0  0
    7.7085    5.6307    1.3021 H   0  0  0  0  0  0  0  0  0  0  0  0
   10.2514    3.0391   -1.3574 H   0  0  0  0  0  0  0  0  0  0  0  0
   -8.1921    3.8531    1.2701 H   0  0  0  0  0  0  0  0  0  0  0  0
   -5.6669    0.9316   -0.6651 H   0  0  0  0  0  0  0  0  0  0  0  0
   -7.3622    0.4225   -0.3886 H   0  0  0  0  0  0  0  0  0  0  0  0
   -7.2897    2.8774   -0.9468 H   0  0  0  0  0  0  0  0  0  0  0  0
   -6.0522    3.1350    0.2975 H   0  0  0  0  0  0  0  0  0  0  0  0
   -4.8507    5.1204    0.5595 H   0  0  0  0  0  0  0  0  0  0  0  0
   -6.3886   -1.5045    1.0736 H   0  0  0  0  0  0  0  0  0  0  0  0
   -4.7370   -0.8416    0.8532 H   0  0  0  0  0  0  0  0  0  0  0  0
   -6.2015   -1.4005    3.5039 H   0  0  0  0  0  0  0  0  0  0  0  0
   -9.5965    2.6928   -0.4458 H   0  0  0  0  0  0  0  0  0  0  0  0
  -10.2514    2.5762    1.2005 H   0  0  0  0  0  0  0  0  0  0  0  0
   -9.4271    1.1574    0.4689 H   0  0  0  0  0  0  0  0  0  0  0  0
   -7.8505    5.5781    2.5922 H   0  0  0  0  0  0  0  0  0  0  0  0
   -7.0796    5.9369    1.0090 H   0  0  0  0  0  0  0  0  0  0  0  0
   -3.0354    6.4365    1.6415 H   0  0  0  0  0  0  0  0  0  0  0  0
   -3.6966    6.0701    3.2624 H   0  0  0  0  0  0  0  0  0  0  0  0
   -0.2795    4.3910    0.3765 H   0  0  0  0  0  0  0  0  0  0  0  0
   -7.0021    7.9297    2.5275 H   0  0  0  0  0  0  0  0  0  0  0  0
   -6.1756    6.9682    3.7965 H   0  0  0  0  0  0  0  0  0  0  0  0
   -3.4081    1.4160    0.2727 H   0  0  0  0  0  0  0  0  0  0  0  0
   -2.7589    2.0289   -1.2537 H   0  0  0  0  0  0  0  0  0  0  0  0
   -4.4910    8.3133    2.5467 H   0  0  0  0  0  0  0  0  0  0  0  0
   -5.0780    7.6526    0.9831 H   0  0  0  0  0  0  0  0  0  0  0  0
    0.5492    1.8184    0.6586 H   0  0  0  0  0  0  0  0  0  0  0  0
    0.6941    1.9383   -1.1081 H   0  0  0  0  0  0  0  0  0  0  0  0
    1.9240    3.7784    1.0567 H   0  0  0  0  0  0  0  0  0  0  0  0
   -2.7273   -1.5289    2.3603 H   0  0  0  0  0  0  0  0  0  0  0  0
   -1.3407    0.3484   -2.3942 H   0  0  0  0  0  0  0  0  0  0  0  0
   -0.0886    4.5242   -2.1051 H   0  0  0  0  0  0  0  0  0  0  0  0
   -1.8108    4.5618   -1.6572 H   0  0  0  0  0  0  0  0  0  0  0  0
   -1.0710    3.0601   -2.3178 H   0  0  0  0  0  0  0  0  0  0  0  0
    4.5443    0.8168   -0.5973 H   0  0  0  0  0  0  0  0  0  0  0  0
    4.3388    1.8936   -2.9102 H   0  0  0  0  0  0  0  0  0  0  0  0
    2.8229    1.4087    1.1106 H   0  0  0  0  0  0  0  0  0  0  0  0
    4.0285    2.6808    0.8251 H   0  0  0  0  0  0  0  0  0  0  0  0
   -5.7629   -3.7566    4.0749 H   0  0  0  0  0  0  0  0  0  0  0  0
   -6.1322   -3.8313    2.3094 H   0  0  0  0  0  0  0  0  0  0  0  0
   -4.7559   -4.7468    2.9904 H   0  0  0  0  0  0  0  0  0  0  0  0
    1.7708    4.9591   -1.1818 H   0  0  0  0  0  0  0  0  0  0  0  0
    3.4103    4.7624   -0.5610 H   0  0  0  0  0  0  0  0  0  0  0  0
    3.3180    4.2239   -2.9969 H   0  0  0  0  0  0  0  0  0  0  0  0
    2.1054    2.9568   -2.7080 H   0  0  0  0  0  0  0  0  0  0  0  0
   -3.7617    0.4295    5.3401 H   0  0  0  0  0  0  0  0  0  0  0  0
   -5.3287   -0.4622    5.4646 H   0  0  0  0  0  0  0  0  0  0  0  0
   -3.7776   -1.3647    5.1088 H   0  0  0  0  0  0  0  0  0  0  0  0
   -0.8710   -2.2124   -0.7341 H   0  0  0  0  0  0  0  0  0  0  0  0
   -2.7665   -4.5981    2.3824 H   0  0  0  0  0  0  0  0  0  0  0  0
    1.2948   -3.5342   -3.3772 H   0  0  0  0  0  0  0  0  0  0  0  0
   -3.8465    0.1079   -2.0964 H   0  0  0  0  0  0  0  0  0  0  0  0
   -3.6034   -1.4587   -1.2463 H   0  0  0  0  0  0  0  0  0  0  0  0
   -3.2096   -1.2991   -2.9943 H   0  0  0  0  0  0  0  0  0  0  0  0
   -1.4016   -4.3932   -2.2079 H   0  0  0  0  0  0  0  0  0  0  0  0
    6.7692    3.8305    0.4058 H   0  0  0  0  0  0  0  0  0  0  0  0
    5.9797    5.3402   -0.2059 H   0  0  0  0  0  0  0  0  0  0  0  0
    8.5758    2.9801   -2.8093 H   0  0  0  0  0  0  0  0  0  0  0  0
    8.0404    2.3398   -1.2100 H   0  0  0  0  0  0  0  0  0  0  0  0
   -0.6848   -2.3927    1.8515 H   0  0  0  0  0  0  0  0  0  0  0  0
    6.9016    6.3668   -2.4890 H   0  0  0  0  0  0  0  0  0  0  0  0
    8.6067    6.0867   -2.0060 H   0  0  0  0  0  0  0  0  0  0  0  0
    7.9966    5.3712   -3.5152 H   0  0  0  0  0  0  0  0  0  0  0  0
   -0.8718   -7.7382   -2.0194 H   0  0  0  0  0  0  0  0  0  0  0  0
   -0.8651   -0.6386   -4.2174 H   0  0  0  0  0  0  0  0  0  0  0  0
    0.7869   -1.2958   -4.4241 H   0  0  0  0  0  0  0  0  0  0  0  0
   -0.6573   -2.2859   -4.8551 H   0  0  0  0  0  0  0  0  0  0  0  0
    2.3032   -1.1304   -2.4468 H   0  0  0  0  0  0  0  0  0  0  0  0
    3.8573   -0.3117   -2.8476 H   0  0  0  0  0  0  0  0  0  0  0  0
    3.6706   -1.2325   -1.2759 H   0  0  0  0  0  0  0  0  0  0  0  0
    0.7972   -4.0420    1.2597 H   0  0  0  0  0  0  0  0  0  0  0  0
    0.7997   -8.2677   -0.4508 H   0  0  0  0  0  0  0  0  0  0  0  0
   -0.7380   -8.3133    0.4313 H   0  0  0  0  0  0  0  0  0  0  0  0
    1.4506   -6.1396    0.5661 H   0  0  0  0  0  0  0  0  0  0  0  0
   -1.3657   -6.1526    1.8909 H   0  0  0  0  0  0  0  0  0  0  0  0
   -2.6870   -7.2066   -0.2821 H   0  0  0  0  0  0  0  0  0  0  0  0
   -2.7746   -6.2810   -1.7900 H   0  0  0  0  0  0  0  0  0  0  0  0
   -2.1367   -5.4984   -0.3175 H   0  0  0  0  0  0  0  0  0  0  0  0
   -1.8911   -5.7799   -5.4646 H   0  0  0  0  0  0  0  0  0  0  0  0
   -1.7017   -6.7186   -3.9402 H   0  0  0  0  0  0  0  0  0  0  0  0
   -2.7191   -5.1886   -3.9749 H   0  0  0  0  0  0  0  0  0  0  0  0
    1.6494   -6.8602    2.9474 H   0  0  0  0  0  0  0  0  0  0  0  0
    1.9447   -8.2382    1.8328 H   0  0  0  0  0  0  0  0  0  0  0  0
    0.3747   -8.1064    2.7021 H   0  0  0  0  0  0  0  0  0  0  0  0
 18  1  1  0      
 20  1  1  0      
 18  2  1  0      
  2 76  1  0      
  3 19  2  0      
  4 27  1  0      
  4 28  1  0      
  5 22  2  0      
 29  6  1  0      
  6 50  1  0      
  7 27  2  0      
 45  8  1  0      
  8 52  1  0      
  9 39  2  0      
 44 10  1  0      
 10 66  1  0      
 11 52  2  0      
 58 12  1  0      
 12 72  1  0      
 56 13  1  0      
 13 77  1  0      
 14 59  2  0      
 15 60  1  0      
 15 78  1  0      
 16 61  1  0      
 16 79  1  0      
 17 22  1  0      
 17 25  1  0      
 17 31  1  0      
 18 19  1  0      
 18 21  1  0      
 19 22  1  0      
 20 23  1  0      
 20 26  1  0      
 20 74  1  0      
 21 24  1  0      
 21 30  1  0      
 21 80  1  0      
 23 24  1  0      
 23 81  1  0      
 23 82  1  0      
 24 83  1  0      
 24 84  1  0      
 25 27  1  0      
 25 32  1  0      
 25 85  1  0      
 26 29  1  0      
 26 86  1  0      
 26 87  1  0      
 28 33  1  0      
 28 36  1  0      
 28 75  1  0      
 29 35  1  0      
 29 88  1  0      
 30 89  1  0      
 30 90  1  0      
 30 91  1  0      
 31 34  1  0      
 31 92  1  0      
 31 93  1  0      
 32 37  1  0      
 32 94  1  0      
 32 95  1  0      
 33 38  1  0      
 33 43  1  0      
 33 96  1  0      
 34 37  1  0      
 34 97  1  0      
 34 98  1  0      
 35 41  2  0      
 35 47  1  0      
 36 39  1  0      
 36 99  1  0      
 36100  1  0      
 37101  1  0      
 37102  1  0      
 40 38  1  0      
 38103  1  0      
 38104  1  0      
 39 42  1  0      
 40 46  1  0      
 40 48  1  0      
 40105  1  0      
 41 54  1  0      
 41106  1  0      
 42 51  1  0      
 42 57  1  0      
 42107  1  0      
 43108  1  0      
 43109  1  0      
 43110  1  0      
 44 45  1  0      
 46 44  1  0      
 44111  1  0      
 45 49  1  0      
 45112  1  0      
 46113  1  0      
 46114  1  0      
 47115  1  0      
 47116  1  0      
 47117  1  0      
 49 48  1  0      
 48118  1  0      
 48119  1  0      
 49120  1  0      
 49121  1  0      
 50122  1  0      
 50123  1  0      
 50124  1  0      
 51 55  2  0      
 51125  1  0      
 52 53  1  0      
 53 60  1  0      
 53 61  1  0      
 53 63  1  0      
 54 62  2  0      
 54126  1  0      
 55 56  1  0      
 55 65  1  0      
 56 58  1  0      
 56127  1  0      
 57128  1  0      
 57129  1  0      
 57130  1  0      
 58 59  1  0      
 58131  1  0      
 59 64  1  0      
 60132  1  0      
 60133  1  0      
 61134  1  0      
 61135  1  0      
 62 67  1  0      
 62136  1  0      
 63137  1  0      
 63138  1  0      
 63139  1  0      
 64 68  1  0      
 64 71  1  0      
 64140  1  0      
 65141  1  0      
 65142  1  0      
 65143  1  0      
 66144  1  0      
 66145  1  0      
 66146  1  0      
 67 70  2  0      
 67147  1  0      
 68 69  1  0      
 68148  1  0      
 68149  1  0      
 69 70  1  0      
 69 73  1  0      
 69150  1  0      
 70151  1  0      
 71152  1  0      
 71153  1  0      
 71154  1  0      
 72155  1  0      
 72156  1  0      
 72157  1  0      
 73158  1  0      
 73159  1  0      
 73160  1  0      
M  END
