
  Chem3D Core 14.010291515323D

  0  0  0     0  0              0 V3000
M  V30 BEGIN CTAB
M  V30 COUNTS 78 85 0 0 0
M  V30 BEGIN ATOM
M  V30 1 S -6.902973 4.465985 2.960671 0
M  V30 2 O 0.714938 1.370652 2.263409 0
M  V30 3 O 2.804497 4.730400 1.437180 0
M  V30 4 O -1.193579 2.365529 1.637756 0
M  V30 5 O -4.638980 2.060196 2.726628 0
M  V30 6 O 4.942107 4.397858 2.184644 0
M  V30 7 O -0.707172 -0.286473 4.045334 0
M  V30 8 O -4.294462 4.024346 1.546973 0
M  V30 9 O -3.188534 0.739789 4.848981 0
M  V30 10 O 2.033582 -3.402056 0.586258 0
M  V30 11 O 4.229578 -3.334997 0.970725 0
M  V30 12 O 8.547838 3.258043 -0.235691 0
M  V30 13 O 5.275130 1.425293 -3.206684 0
M  V30 14 O 7.822879 2.715310 -2.690457 0
M  V30 15 C 2.270675 2.544471 0.863007 0
M  V30 16 C 3.414977 2.522710 1.866022 0
M  V30 17 C 1.409132 1.300011 1.035938 0
M  V30 18 C 4.386745 1.388868 1.522026 0
M  V30 19 C 2.289603 0.052469 1.030313 0
M  V30 20 C 3.625833 0.092557 1.265575 0
M  V30 21 C 1.694093 3.930784 1.107620 0
M  V30 22 C 3.857636 3.971649 1.857483 0
M  V30 23 C -0.676720 1.163130 2.163636 0
M  V30 24 C 5.312016 1.717523 0.359251 0
M  V30 25 C -1.212514 0.930400 3.555781 0
M  V30 26 C -3.249370 2.133822 2.878162 0
M  V30 27 C -2.725583 0.862866 3.526766 0
M  V30 28 C -2.588454 2.335010 1.522321 0
M  V30 29 C 1.690757 -1.131630 0.790460 0
M  V30 30 C 4.344558 -1.048936 1.254896 0
M  V30 31 C 2.418373 -2.253379 0.786019 0
M  V30 32 C 3.732257 -2.213347 1.017041 0
M  V30 33 C -3.083170 3.650826 0.937322 0
M  V30 34 C 4.990601 1.453558 -0.915522 0
M  V30 35 C 6.500295 2.302228 0.570900 0
M  V30 36 C -5.161201 2.913669 1.713315 0
M  V30 37 C 7.340244 2.626716 -0.428750 0
M  V30 38 C 5.780752 1.747252 -1.965600 0
M  V30 39 C 3.175560 -4.255715 0.681706 0
M  V30 40 C 6.958377 2.359847 -1.699239 0
M  V30 41 C -6.574375 3.336162 2.074070 0
M  V30 42 C -7.674607 2.710299 1.630719 0
M  V30 43 C -8.759360 3.308167 2.132113 0
M  V30 44 C -8.361061 4.324415 2.905898 0
M  V30 45 C 8.836154 3.826575 1.020239 0
M  V30 46 C 5.869141 1.908544 -4.386383 0
M  V30 47 H 2.683930 2.555829 -0.175272 0
M  V30 48 H 3.007806 2.352929 2.894021 0
M  V30 49 H -3.014313 2.998686 3.545110 0
M  V30 50 H -2.865262 1.495960 0.838769 0
M  V30 51 H 0.248986 -0.224096 4.116036 0
M  V30 52 H -2.779226 -0.038915 5.237298 0
M  V30 53 H 8.624177 3.119715 -2.323866 0
M  V30 54 H 0.699058 1.274990 0.177071 0
M  V30 55 H 5.015603 1.219863 2.432255 0
M  V30 56 H 1.184337 4.346708 0.209966 0
M  V30 57 H 0.987604 3.961374 1.966866 0
M  V30 58 H -0.906315 0.304985 1.495629 0
M  V30 59 H -0.866075 1.733460 4.247096 0
M  V30 60 H -3.067657 -0.037695 2.966844 0
M  V30 61 H 0.609043 -1.194826 0.596332 0
M  V30 62 H 5.431644 -1.036027 1.434722 0
M  V30 63 H -2.361940 4.478188 1.131739 0
M  V30 64 H -3.227513 3.580406 -0.165200 0
M  V30 65 H 4.024399 0.969295 -1.133339 0
M  V30 66 H 6.775485 2.512584 1.614537 0
M  V30 67 H -5.204322 2.347678 0.753121 0
M  V30 68 H 3.361122 -4.778874 -0.284926 0
M  V30 69 H 3.052683 -4.991355 1.510169 0
M  V30 70 H -7.687412 1.838811 0.962240 0
M  V30 71 H -9.800131 3.012853 1.943178 0
M  V30 72 H -9.044956 4.991355 3.448816 0
M  V30 73 H 9.800131 4.375736 0.930036 0
M  V30 74 H 8.044185 4.554670 1.305721 0
M  V30 75 H 8.967412 3.030941 1.786709 0
M  V30 76 H 5.216826 1.608604 -5.237298 0
M  V30 77 H 5.916205 3.019841 -4.371325 0
M  V30 78 H 6.860638 1.432463 -4.548773 0
M  V30 END ATOM
M  V30 BEGIN BOND
M  V30 1 1 41 1
M  V30 2 1 44 1
M  V30 3 1 17 2
M  V30 4 1 23 2
M  V30 5 1 3 21
M  V30 6 1 3 22
M  V30 7 1 23 4
M  V30 8 1 4 28
M  V30 9 1 5 26
M  V30 10 1 36 5
M  V30 11 2 6 22
M  V30 12 1 25 7
M  V30 13 1 7 51
M  V30 14 1 33 8
M  V30 15 1 8 36
M  V30 16 1 27 9
M  V30 17 1 9 52
M  V30 18 1 10 31
M  V30 19 1 10 39
M  V30 20 1 11 32
M  V30 21 1 11 39
M  V30 22 1 12 37
M  V30 23 1 12 45
M  V30 24 1 13 38
M  V30 25 1 13 46
M  V30 26 1 14 40
M  V30 27 1 14 53
M  V30 28 1 15 16
M  V30 29 1 15 17
M  V30 30 1 15 21
M  V30 31 1 15 47
M  V30 32 1 16 18
M  V30 33 1 16 22
M  V30 34 1 16 48
M  V30 35 1 17 19
M  V30 36 1 17 54
M  V30 37 1 18 20
M  V30 38 1 18 24
M  V30 39 1 18 55
M  V30 40 1 19 20
M  V30 41 2 19 29
M  V30 42 2 20 30
M  V30 43 1 21 56
M  V30 44 1 21 57
M  V30 45 1 23 25
M  V30 46 1 23 58
M  V30 47 1 24 34
M  V30 48 2 24 35
M  V30 49 1 27 25
M  V30 50 1 25 59
M  V30 51 1 26 27
M  V30 52 1 28 26
M  V30 53 1 26 49
M  V30 54 1 27 60
M  V30 55 1 28 33
M  V30 56 1 28 50
M  V30 57 1 29 31
M  V30 58 1 29 61
M  V30 59 1 30 32
M  V30 60 1 30 62
M  V30 61 2 31 32
M  V30 62 1 33 63
M  V30 63 1 33 64
M  V30 64 2 34 38
M  V30 65 1 34 65
M  V30 66 1 37 35
M  V30 67 1 35 66
M  V30 68 1 36 41
M  V30 69 1 36 67
M  V30 70 2 40 37
M  V30 71 1 38 40
M  V30 72 1 39 68
M  V30 73 1 39 69
M  V30 74 2 41 42
M  V30 75 1 42 43
M  V30 76 1 42 70
M  V30 77 2 43 44
M  V30 78 1 43 71
M  V30 79 1 44 72
M  V30 80 1 45 73
M  V30 81 1 45 74
M  V30 82 1 45 75
M  V30 83 1 46 76
M  V30 84 1 46 77
M  V30 85 1 46 78
M  V30 END BOND
M  V30 END CTAB
M  END
