
  Chem3D Core 14.010291515353D

  0  0  0     0  0              0 V3000
M  V30 BEGIN CTAB
M  V30 COUNTS 33 35 0 0 0
M  V30 BEGIN ATOM
M  V30 1 S 3.087136 -0.456998 0.168778 0
M  V30 2 S 0.182770 2.146557 -0.925002 0
M  V30 3 O 4.480185 -0.222388 -0.182587 0
M  V30 4 O 2.646803 -1.114290 1.391062 0
M  V30 5 O -1.007451 -0.479722 -1.164913 0
M  V30 6 O 1.309278 -3.874259 -1.020059 0
M  V30 7 N 2.262080 -1.211214 -1.117486 0
M  V30 8 N -0.648147 -3.165493 -0.665878 0
M  V30 9 N -2.631397 -3.548608 0.120099 0
M  V30 10 C 2.037472 0.928315 -0.279115 0
M  V30 11 C 1.022634 -1.506646 -0.955350 0
M  V30 12 C 0.763881 0.812696 -0.680821 0
M  V30 13 C 0.188988 -0.406095 -0.935549 0
M  V30 14 C 2.381770 2.214443 -0.160969 0
M  V30 15 C 3.110970 -2.155744 -1.900296 0
M  V30 16 C 0.507451 -2.762597 -1.024371 0
M  V30 17 C 1.332625 2.960770 -0.523482 0
M  V30 18 C -1.565534 -2.856137 0.163694 0
M  V30 19 C -1.444775 -1.894993 1.102518 0
M  V30 20 C -2.447485 -1.635250 1.955511 0
M  V30 21 C -3.588281 -3.318069 0.914828 0
M  V30 22 C -3.564916 -2.366381 1.857982 0
M  V30 23 H 2.155792 -3.659287 -0.597050 0
M  V30 24 H -0.883254 -4.059133 -1.171468 0
M  V30 25 H 3.356638 2.597482 0.168989 0
M  V30 26 H 2.555914 -2.653828 -2.726393 0
M  V30 27 H 3.893524 -1.570615 -2.436292 0
M  V30 28 H 3.646860 -2.897807 -1.265979 0
M  V30 29 H 1.323881 4.059133 -0.532957 0
M  V30 30 H -0.520076 -1.311433 1.228864 0
M  V30 31 H -2.351535 -0.853217 2.726393 0
M  V30 32 H -4.480185 -3.957977 0.803434 0
M  V30 33 H -4.419709 -2.203186 2.533385 0
M  V30 END ATOM
M  V30 BEGIN BOND
M  V30 1 2 1 3
M  V30 2 2 1 4
M  V30 3 1 7 1
M  V30 4 1 1 10
M  V30 5 1 12 2
M  V30 6 1 2 17
M  V30 7 2 5 13
M  V30 8 1 6 16
M  V30 9 1 6 23
M  V30 10 1 11 7
M  V30 11 1 7 15
M  V30 12 1 8 16
M  V30 13 1 8 18
M  V30 14 1 8 24
M  V30 15 2 18 9
M  V30 16 1 9 21
M  V30 17 2 10 12
M  V30 18 1 10 14
M  V30 19 1 11 13
M  V30 20 2 11 16
M  V30 21 1 12 13
M  V30 22 2 17 14
M  V30 23 1 14 25
M  V30 24 1 15 26
M  V30 25 1 15 27
M  V30 26 1 15 28
M  V30 27 1 17 29
M  V30 28 1 19 18
M  V30 29 2 20 19
M  V30 30 1 19 30
M  V30 31 1 22 20
M  V30 32 1 20 31
M  V30 33 2 22 21
M  V30 34 1 21 32
M  V30 35 1 22 33
M  V30 END BOND
M  V30 END CTAB
M  END
