
  Chem3D Core 15.008141512263D

 49 50  0  0  0  0  0  0  0  0999 V2000
    4.5209    1.1553   -1.3921 C   0  0  0  0  0  0  0  0  0  0  0  0
    3.5702    2.0835   -2.1223 C   0  0  0  0  0  0  0  0  0  0  0  0
    3.9216    3.1341   -2.5946 O   0  0  0  0  0  0  0  0  0  0  0  0
    2.2668    1.7057   -2.2415 N   0  0  0  0  0  0  0  0  0  0  0  0
    1.4811    0.6679   -1.8845 C   0  0  0  0  0  0  0  0  0  0  0  0
    1.8279   -0.4472   -1.2196 C   0  0  0  0  0  0  0  0  0  0  0  0
    0.9258   -1.3987   -0.9266 C   0  0  0  0  0  0  0  0  0  0  0  0
   -0.3610   -1.2674   -1.2912 C   0  0  0  0  0  0  0  0  0  0  0  0
   -1.2747   -2.1133   -1.0311 N   0  0  0  0  0  0  0  0  0  0  0  0
   -1.1852   -3.1987   -0.3803 C   0  0  0  0  0  0  0  0  0  0  0  0
   -1.2713   -4.5366   -1.2138 S   0  0  0  0  0  0  0  0  0  0  0  0
   -0.9427   -3.2100    0.9788 N   0  0  0  0  0  0  0  0  0  0  0  0
   -0.9167   -2.1768    1.8874 C   0  0  0  0  0  0  0  0  0  0  0  0
   -0.1288   -2.3071    2.7954 O   0  0  0  0  0  0  0  0  0  0  0  0
   -1.5638   -1.0055    1.6302 C   0  0  0  0  0  0  0  0  0  0  0  0
   -2.7195   -0.9679    0.9439 C   0  0  0  0  0  0  0  0  0  0  0  0
   -3.3205    0.1988    0.6621 C   0  0  0  0  0  0  0  0  0  0  0  0
   -2.8059    1.3776    1.0582 C   0  0  0  0  0  0  0  0  0  0  0  0
   -3.4463    2.7285    0.7198 C   0  0  0  0  0  0  0  0  0  0  0  0
   -4.7517    2.6152   -0.1003 C   0  0  0  0  0  0  0  0  0  0  0  0
   -3.7858    3.4861    2.0220 C   0  0  0  0  0  0  0  0  0  0  0  0
   -2.4479    3.5548   -0.1218 C   0  0  0  0  0  0  0  0  0  0  0  0
   -1.6741    1.3218    1.7854 C   0  0  0  0  0  0  0  0  0  0  0  0
   -1.0667    0.1613    2.0771 C   0  0  0  0  0  0  0  0  0  0  0  0
   -0.7159   -0.1590   -1.9627 C   0  0  0  0  0  0  0  0  0  0  0  0
    0.1905    0.7872   -2.2499 C   0  0  0  0  0  0  0  0  0  0  0  0
    4.6202    0.1830   -1.9243 H   0  0  0  0  0  0  0  0  0  0  0  0
    5.5414    1.6006   -1.3666 H   0  0  0  0  0  0  0  0  0  0  0  0
    4.2147    1.0212   -0.3305 H   0  0  0  0  0  0  0  0  0  0  0  0
    1.7139    2.3927   -2.7358 H   0  0  0  0  0  0  0  0  0  0  0  0
    2.8554   -0.6309   -0.8826 H   0  0  0  0  0  0  0  0  0  0  0  0
    1.2685   -2.2891   -0.3727 H   0  0  0  0  0  0  0  0  0  0  0  0
   -2.2356   -1.8667   -1.3776 H   0  0  0  0  0  0  0  0  0  0  0  0
   -0.5745   -4.0705    1.3582 H   0  0  0  0  0  0  0  0  0  0  0  0
   -3.2172   -1.8936    0.6088 H   0  0  0  0  0  0  0  0  0  0  0  0
   -4.2568    0.1492    0.0864 H   0  0  0  0  0  0  0  0  0  0  0  0
   -5.1770    3.6198   -0.3242 H   0  0  0  0  0  0  0  0  0  0  0  0
   -4.5834    2.1222   -1.0846 H   0  0  0  0  0  0  0  0  0  0  0  0
   -5.5414    2.0572    0.4519 H   0  0  0  0  0  0  0  0  0  0  0  0
   -4.2800    4.4605    1.8070 H   0  0  0  0  0  0  0  0  0  0  0  0
   -2.8859    3.7200    2.6320 H   0  0  0  0  0  0  0  0  0  0  0  0
   -4.4787    2.8902    2.6589 H   0  0  0  0  0  0  0  0  0  0  0  0
   -1.5063    3.7784    0.4264 H   0  0  0  0  0  0  0  0  0  0  0  0
   -2.1702    3.0134   -1.0552 H   0  0  0  0  0  0  0  0  0  0  0  0
   -2.8817    4.5366   -0.4180 H   0  0  0  0  0  0  0  0  0  0  0  0
   -1.2013    2.2486    2.1481 H   0  0  0  0  0  0  0  0  0  0  0  0
   -0.1282    0.2037    2.6557 H   0  0  0  0  0  0  0  0  0  0  0  0
   -1.7627   -0.0018   -2.2769 H   0  0  0  0  0  0  0  0  0  0  0  0
   -0.1514    1.6845   -2.7954 H   0  0  0  0  0  0  0  0  0  0  0  0
  1  2  1  0      
  1 27  1  0      
  1 28  1  0      
  1 29  1  0      
  2  3  2  0      
  2  4  1  0      
  4  5  1  0      
  4 30  1  0      
  5  6  1  0      
  5 26  2  0      
  6  7  2  0      
  6 31  1  0      
  7  8  1  0      
  7 32  1  0      
  8  9  1  0      
  8 25  2  0      
  9 10  1  0      
  9 33  1  0      
 10 11  2  0      
 10 12  1  0      
 12 13  1  0      
 12 34  1  0      
 13 14  2  0      
 13 15  1  0      
 15 16  1  0      
 15 24  2  0      
 16 17  2  0      
 16 35  1  0      
 17 18  1  0      
 17 36  1  0      
 18 19  1  0      
 18 23  2  0      
 19 20  1  0      
 19 21  1  0      
 19 22  1  0      
 20 37  1  0      
 20 38  1  0      
 20 39  1  0      
 21 40  1  0      
 21 41  1  0      
 21 42  1  0      
 22 43  1  0      
 22 44  1  0      
 22 45  1  0      
 23 24  1  0      
 23 46  1  0      
 24 47  1  0      
 25 26  1  0      
 25 48  1  0      
 26 49  1  0      
M  END
