
  Chem3D Core 14.010291515383D

  0  0  0     0  0              0 V3000
M  V30 BEGIN CTAB
M  V30 COUNTS 53 56 0 0 0
M  V30 BEGIN ATOM
M  V30 1 O -1.002160 4.843771 -0.658715 0
M  V30 2 O -4.389446 4.407528 -0.540633 0
M  V30 3 O 3.252096 -3.488604 -0.499836 0
M  V30 4 O 1.577708 -5.667019 -1.274352 0
M  V30 5 N -3.041537 3.144542 0.771152 0
M  V30 6 N -2.119366 0.591677 0.193732 0
M  V30 7 N -0.449555 -0.846316 -0.068594 0
M  V30 8 N -2.496047 -1.501898 -0.445824 0
M  V30 9 N -3.000167 -3.531902 -1.083276 0
M  V30 10 C -2.231256 5.320095 -0.163023 0
M  V30 11 C -1.753430 2.783829 1.355623 0
M  V30 12 C -4.003232 2.060302 0.952926 0
M  V30 13 C -1.124274 1.648967 0.530411 0
M  V30 14 C -3.579518 0.868155 0.080100 0
M  V30 15 C -1.946269 6.181393 1.061638 0
M  V30 16 C -3.318998 4.251875 -0.002395 0
M  V30 17 C -0.610491 6.795273 0.638790 0
M  V30 18 C 0.029643 5.655643 -0.147661 0
M  V30 19 C -1.692332 -0.578177 -0.100598 0
M  V30 20 C 0.004508 -1.990940 -0.356518 0
M  V30 21 C -0.817298 -2.983049 -0.720056 0
M  V30 22 C -2.125788 -2.673989 -0.751816 0
M  V30 23 C 1.322464 -2.230892 -0.302649 0
M  V30 24 C -0.274994 -4.175913 -1.018576 0
M  V30 25 C 1.876702 -3.426711 -0.585665 0
M  V30 26 C 1.051703 -4.430320 -0.981280 0
M  V30 27 C 3.979479 -4.412901 -1.273885 0
M  V30 28 C 0.728180 -6.772005 -1.477457 0
M  V30 29 H -2.749790 -4.514354 -1.346003 0
M  V30 30 H -4.013401 -3.257981 -1.098858 0
M  V30 31 H -2.608866 6.021221 -0.952298 0
M  V30 32 H -1.049659 3.628841 1.478855 0
M  V30 33 H -1.913150 2.425148 2.400083 0
M  V30 34 H -5.048861 2.366143 0.724556 0
M  V30 35 H -4.025452 1.750887 2.024449 0
M  V30 36 H -0.733409 2.068697 -0.427061 0
M  V30 37 H -0.258856 1.265137 1.120463 0
M  V30 38 H -4.215864 0.004284 0.385011 0
M  V30 39 H -3.802402 1.108961 -0.987327 0
M  V30 40 H -2.732786 6.947438 1.248924 0
M  V30 41 H -1.828994 5.575994 1.987273 0
M  V30 42 H 0.005497 7.133963 1.502259 0
M  V30 43 H -0.788932 7.668209 -0.033928 0
M  V30 44 H 0.664389 6.020592 -0.986203 0
M  V30 45 H 0.661897 5.025415 0.520141 0
M  V30 46 H 1.994013 -1.404765 -0.006750 0
M  V30 47 H -0.954165 -4.985952 -1.315264 0
M  V30 48 H 5.048861 -4.104136 -1.249510 0
M  V30 49 H 3.927129 -5.429955 -0.828541 0
M  V30 50 H 3.638002 -4.388853 -2.332529 0
M  V30 51 H 1.371659 -7.668209 -1.626093 0
M  V30 52 H 0.096056 -6.946980 -0.578392 0
M  V30 53 H 0.121716 -6.634067 -2.400083 0
M  V30 END ATOM
M  V30 BEGIN BOND
M  V30 1 1 10 1
M  V30 2 1 18 1
M  V30 3 2 2 16
M  V30 4 1 3 25
M  V30 5 1 3 27
M  V30 6 1 4 26
M  V30 7 1 4 28
M  V30 8 1 5 11
M  V30 9 1 5 12
M  V30 10 1 5 16
M  V30 11 1 13 6
M  V30 12 1 6 14
M  V30 13 1 6 19
M  V30 14 1 7 19
M  V30 15 2 20 7
M  V30 16 2 19 8
M  V30 17 1 8 22
M  V30 18 1 9 22
M  V30 19 1 9 29
M  V30 20 1 9 30
M  V30 21 1 10 15
M  V30 22 1 10 16
M  V30 23 1 10 31
M  V30 24 1 11 13
M  V30 25 1 11 32
M  V30 26 1 11 33
M  V30 27 1 14 12
M  V30 28 1 12 34
M  V30 29 1 12 35
M  V30 30 1 13 36
M  V30 31 1 13 37
M  V30 32 1 14 38
M  V30 33 1 14 39
M  V30 34 1 15 17
M  V30 35 1 15 40
M  V30 36 1 15 41
M  V30 37 1 17 18
M  V30 38 1 17 42
M  V30 39 1 17 43
M  V30 40 1 18 44
M  V30 41 1 18 45
M  V30 42 1 20 21
M  V30 43 1 23 20
M  V30 44 2 22 21
M  V30 45 1 21 24
M  V30 46 2 25 23
M  V30 47 1 23 46
M  V30 48 2 24 26
M  V30 49 1 24 47
M  V30 50 1 25 26
M  V30 51 1 27 48
M  V30 52 1 27 49
M  V30 53 1 27 50
M  V30 54 1 28 51
M  V30 55 1 28 52
M  V30 56 1 28 53
M  V30 END BOND
M  V30 END CTAB
M  END
