
  Chem3D Core 14.010291515443D

  0  0  0     0  0              0 V3000
M  V30 BEGIN CTAB
M  V30 COUNTS 67 71 0 0 0
M  V30 BEGIN ATOM
M  V30 1 Cl -3.312391 -2.237045 2.149233 0
M  V30 2 Cl -8.515456 -2.764956 2.743349 0
M  V30 3 O -2.925301 -1.301413 -0.687529 0
M  V30 4 O -4.191874 -2.013921 -2.283146 0
M  V30 5 O -1.882175 1.303003 -0.254036 0
M  V30 6 N 5.117788 5.310106 -0.617327 0
M  V30 7 N 2.307077 4.826593 -0.267909 0
M  V30 8 N -3.966467 -4.814369 -1.251376 0
M  V30 9 N -4.521022 -5.127224 -2.308196 0
M  V30 10 N -5.080543 -6.479005 -0.765615 0
M  V30 11 C 4.212356 5.133451 -1.752227 0
M  V30 12 C 4.585392 4.643010 0.570293 0
M  V30 13 C 2.773456 5.590807 -1.455130 0
M  V30 14 C 3.155530 5.087801 0.924899 0
M  V30 15 C -3.818858 -2.365344 -0.958652 0
M  V30 16 C 6.485153 4.864790 -0.931032 0
M  V30 17 C -3.561002 -0.138850 -1.120545 0
M  V30 18 C -4.357965 -0.621445 -2.311662 0
M  V30 19 C -3.050300 -3.686743 -1.002328 0
M  V30 20 C 1.319195 4.007877 -0.281262 0
M  V30 21 C -4.994418 -2.445924 0.028853 0
M  V30 22 C -2.532793 0.934061 -1.442328 0
M  V30 23 C 7.460607 5.081988 0.246556 0
M  V30 24 C 7.073835 5.591715 -2.160078 0
M  V30 25 C 0.921881 3.297123 0.796807 0
M  V30 26 C 0.572403 3.752787 -1.378267 0
M  V30 27 C -0.851390 2.208378 -0.314369 0
M  V30 28 C -4.851632 -2.401009 1.372326 0
M  V30 29 C -6.246355 -2.619611 -0.442158 0
M  V30 30 C -0.109770 2.438273 0.781634 0
M  V30 31 C -0.461117 2.894286 -1.402611 0
M  V30 32 C -5.916072 -2.493455 2.189877 0
M  V30 33 C -7.314975 -2.712298 0.363139 0
M  V30 34 C -4.282601 -5.609045 -0.314406 0
M  V30 35 C -7.151689 -2.642901 1.690818 0
M  V30 36 C -5.197475 -6.148259 -1.982984 0
M  V30 37 H 4.550529 5.741004 -2.623959 0
M  V30 38 H 4.191220 4.063968 -2.072176 0
M  V30 39 H 5.207319 4.877596 1.465582 0
M  V30 40 H 4.593918 3.535059 0.432449 0
M  V30 41 H 2.775602 6.677119 -1.199282 0
M  V30 42 H 2.162968 5.525142 -2.376045 0
M  V30 43 H 2.847336 4.623847 1.881381 0
M  V30 44 H 3.149083 6.184446 1.131698 0
M  V30 45 H 6.474806 3.769224 -1.161298 0
M  V30 46 H -4.244342 0.216133 -0.311028 0
M  V30 47 H -5.439309 -0.369761 -2.226632 0
M  V30 48 H -3.971684 -0.244393 -3.284650 0
M  V30 49 H -2.480359 -3.833325 -0.057314 0
M  V30 50 H -2.280948 -3.660999 -1.809394 0
M  V30 51 H -3.057402 1.821795 -1.866312 0
M  V30 52 H -1.787954 0.533801 -2.168590 0
M  V30 53 H 8.515456 4.888762 -0.053249 0
M  V30 54 H 7.276239 4.387171 1.095504 0
M  V30 55 H 7.405982 6.129263 0.622305 0
M  V30 56 H 8.156096 5.365299 -2.291705 0
M  V30 57 H 6.600786 5.277452 -3.116587 0
M  V30 58 H 6.973355 6.696323 -2.056556 0
M  V30 59 H 1.415822 3.359721 1.775791 0
M  V30 60 H 0.758408 4.229197 -2.350516 0
M  V30 61 H -6.437248 -2.703059 -1.523816 0
M  V30 62 H -0.366516 1.891142 1.706320 0
M  V30 63 H -0.992311 2.766513 -2.360060 0
M  V30 64 H -5.782628 -2.452904 3.284650 0
M  V30 65 H -8.317486 -2.852354 -0.075253 0
M  V30 66 H -3.922173 -5.536417 0.717539 0
M  V30 67 H -5.830318 -6.696323 -2.693514 0
M  V30 END ATOM
M  V30 BEGIN BOND
M  V30 1 1 1 28
M  V30 2 1 2 35
M  V30 3 1 3 15
M  V30 4 1 17 3
M  V30 5 1 15 4
M  V30 6 1 18 4
M  V30 7 1 5 22
M  V30 8 1 5 27
M  V30 9 1 6 11
M  V30 10 1 6 12
M  V30 11 1 6 16
M  V30 12 1 13 7
M  V30 13 1 7 14
M  V30 14 1 7 20
M  V30 15 1 8 9
M  V30 16 1 8 19
M  V30 17 1 34 8
M  V30 18 2 9 36
M  V30 19 2 34 10
M  V30 20 1 36 10
M  V30 21 1 11 13
M  V30 22 1 11 37
M  V30 23 1 11 38
M  V30 24 1 14 12
M  V30 25 1 12 39
M  V30 26 1 12 40
M  V30 27 1 13 41
M  V30 28 1 13 42
M  V30 29 1 14 43
M  V30 30 1 14 44
M  V30 31 1 15 19
M  V30 32 1 15 21
M  V30 33 1 16 23
M  V30 34 1 16 24
M  V30 35 1 16 45
M  V30 36 1 18 17
M  V30 37 1 17 22
M  V30 38 1 17 46
M  V30 39 1 18 47
M  V30 40 1 18 48
M  V30 41 1 19 49
M  V30 42 1 19 50
M  V30 43 1 20 25
M  V30 44 2 20 26
M  V30 45 1 21 28
M  V30 46 2 21 29
M  V30 47 1 22 51
M  V30 48 1 22 52
M  V30 49 1 23 53
M  V30 50 1 23 54
M  V30 51 1 23 55
M  V30 52 1 24 56
M  V30 53 1 24 57
M  V30 54 1 24 58
M  V30 55 2 25 30
M  V30 56 1 25 59
M  V30 57 1 31 26
M  V30 58 1 26 60
M  V30 59 1 30 27
M  V30 60 2 27 31
M  V30 61 2 28 32
M  V30 62 1 33 29
M  V30 63 1 29 61
M  V30 64 1 30 62
M  V30 65 1 31 63
M  V30 66 1 32 35
M  V30 67 1 32 64
M  V30 68 2 35 33
M  V30 69 1 33 65
M  V30 70 1 34 66
M  V30 71 1 36 67
M  V30 END BOND
M  V30 END CTAB
M  END
