
  Chem3D Core 15.003291611163D

 56 59  0  0  0  0  0  0  0  0999 V2000
    2.7451   -2.5616    0.2878 O   0  0  0  0  0  0  0  0  0  0  0  0
    1.0172   -2.9396    2.1893 O   0  0  0  0  0  0  0  0  0  0  0  0
   -0.8085    1.2452    2.3840 O   0  0  0  0  0  0  0  0  0  0  0  0
    3.0547   -1.2278    2.8245 O   0  0  0  0  0  0  0  0  0  0  0  0
   -1.5430   -2.8452    2.3488 O   0  0  0  0  0  0  0  0  0  0  0  0
    4.2714    2.0369   -0.2875 O   0  0  0  0  0  0  0  0  0  0  0  0
   -4.0733   -2.9059    2.4971 O   0  0  0  0  0  0  0  0  0  0  0  0
    4.0115    1.2107    3.5376 O   0  0  0  0  0  0  0  0  0  0  0  0
    4.0387   -0.9211   -1.5505 N   0  0  0  0  0  0  0  0  0  0  0  0
    5.4337    1.8340    1.9980 N   0  0  0  0  0  0  0  0  0  0  0  0
    2.0655   -1.3895    0.7264 C   0  0  0  0  0  0  0  0  0  0  0  0
    1.7788   -0.5193   -0.4870 C   0  0  0  0  0  0  0  0  0  0  0  0
   -0.5490   -0.0099    0.3843 C   0  0  0  0  0  0  0  0  0  0  0  0
   -0.4222   -1.2377    1.2614 C   0  0  0  0  0  0  0  0  0  0  0  0
    0.7765   -1.8516    1.4008 C   0  0  0  0  0  0  0  0  0  0  0  0
   -1.4181    0.9953    1.1340 C   0  0  0  0  0  0  0  0  0  0  0  0
    0.7919    0.5808   -0.0742 C   0  0  0  0  0  0  0  0  0  0  0  0
    3.0953    0.0709   -1.0240 C   0  0  0  0  0  0  0  0  0  0  0  0
    2.9882   -0.6881    1.7380 C   0  0  0  0  0  0  0  0  0  0  0  0
   -1.5635   -1.7462    1.8289 C   0  0  0  0  0  0  0  0  0  0  0  0
   -2.7276    0.2789    1.4144 C   0  0  0  0  0  0  0  0  0  0  0  0
   -2.7341   -1.0258    1.7811 C   0  0  0  0  0  0  0  0  0  0  0  0
    3.6787    0.4431    1.4005 C   0  0  0  0  0  0  0  0  0  0  0  0
    3.7249    0.8541    0.1139 C   0  0  0  0  0  0  0  0  0  0  0  0
   -3.9178   -1.6021    2.1231 C   0  0  0  0  0  0  0  0  0  0  0  0
   -1.5260    2.3371    0.4007 C   0  0  0  0  0  0  0  0  0  0  0  0
   -3.8814    0.9707    1.3770 C   0  0  0  0  0  0  0  0  0  0  0  0
    4.2956    1.1905    2.3645 C   0  0  0  0  0  0  0  0  0  0  0  0
   -5.0507   -0.8811    2.0577 C   0  0  0  0  0  0  0  0  0  0  0  0
   -5.0500    0.4010    1.6862 C   0  0  0  0  0  0  0  0  0  0  0  0
    3.5092   -1.6360   -2.7067 C   0  0  0  0  0  0  0  0  0  0  0  0
    5.3216   -0.3277   -1.9092 C   0  0  0  0  0  0  0  0  0  0  0  0
    1.2596   -1.1175   -1.2727 H   0  0  0  0  0  0  0  0  0  0  0  0
   -1.0910   -0.3353   -0.5403 H   0  0  0  0  0  0  0  0  0  0  0  0
    3.6588   -2.3734    0.0689 H   0  0  0  0  0  0  0  0  0  0  0  0
    1.9756   -2.9716    2.3536 H   0  0  0  0  0  0  0  0  0  0  0  0
   -1.0018    0.5078    2.9702 H   0  0  0  0  0  0  0  0  0  0  0  0
    3.8815    2.3386   -1.1231 H   0  0  0  0  0  0  0  0  0  0  0  0
   -5.0182   -3.1005    2.6061 H   0  0  0  0  0  0  0  0  0  0  0  0
    5.8055    1.7650    1.0637 H   0  0  0  0  0  0  0  0  0  0  0  0
    5.9196    2.3536    2.7128 H   0  0  0  0  0  0  0  0  0  0  0  0
    1.2253    1.1933    0.7475 H   0  0  0  0  0  0  0  0  0  0  0  0
    0.6315    1.2626   -0.9427 H   0  0  0  0  0  0  0  0  0  0  0  0
    2.8294    0.7834   -1.8433 H   0  0  0  0  0  0  0  0  0  0  0  0
   -2.0816    3.1005    0.9889 H   0  0  0  0  0  0  0  0  0  0  0  0
   -0.5340    2.8102    0.2354 H   0  0  0  0  0  0  0  0  0  0  0  0
   -2.0137    2.2171   -0.5933 H   0  0  0  0  0  0  0  0  0  0  0  0
   -3.9193    2.0351    1.1052 H   0  0  0  0  0  0  0  0  0  0  0  0
   -6.0138   -1.3540    2.3165 H   0  0  0  0  0  0  0  0  0  0  0  0
   -5.9898    0.9767    1.6493 H   0  0  0  0  0  0  0  0  0  0  0  0
    4.2485   -2.3740   -3.0938 H   0  0  0  0  0  0  0  0  0  0  0  0
    2.6126   -2.2417   -2.4557 H   0  0  0  0  0  0  0  0  0  0  0  0
    3.2469   -0.9419   -3.5376 H   0  0  0  0  0  0  0  0  0  0  0  0
    6.0138   -1.0902   -2.3340 H   0  0  0  0  0  0  0  0  0  0  0  0
    5.8530    0.0706   -1.0164 H   0  0  0  0  0  0  0  0  0  0  0  0
    5.2056    0.4895   -2.6576 H   0  0  0  0  0  0  0  0  0  0  0  0
 11  1  1  0      
  1 35  1  0      
  2 15  1  0      
  2 36  1  0      
 16  3  1  0      
  3 37  1  0      
  4 19  2  0      
  5 20  2  0      
  6 24  1  0      
  6 38  1  0      
  7 25  1  0      
  7 39  1  0      
  8 28  2  0      
 18  9  1  0      
  9 31  1  0      
  9 32  1  0      
 10 28  1  0      
 10 40  1  0      
 10 41  1  0      
 12 11  1  0      
 15 11  1  0      
 11 19  1  0      
 12 17  1  0      
 18 12  1  0      
 12 33  1  0      
 13 14  1  0      
 13 16  1  0      
 17 13  1  0      
 13 34  1  0      
 14 15  2  0      
 14 20  1  0      
 21 16  1  0      
 16 26  1  0      
 17 42  1  0      
 17 43  1  0      
 24 18  1  0      
 18 44  1  0      
 23 19  1  0      
 20 22  1  0      
 22 21  2  0      
 27 21  1  0      
 22 25  1  0      
 23 24  2  0      
 23 28  1  0      
 25 29  2  0      
 26 45  1  0      
 26 46  1  0      
 26 47  1  0      
 30 27  2  0      
 27 48  1  0      
 29 30  1  0      
 29 49  1  0      
 30 50  1  0      
 31 51  1  0      
 31 52  1  0      
 31 53  1  0      
 32 54  1  0      
 32 55  1  0      
 32 56  1  0      
M  END
