
  Chem3D Core 15.002261616373D

 29 31  0  0  0  0  0  0  0  0999 V2000
   -1.4866    2.4375    0.4313 O   0  0  0  0  0  0  0  0  0  0  0  0
   -1.3054    1.2599    0.6228 C   0  0  0  0  0  0  0  0  0  0  0  0
   -0.1008    0.5854    0.5327 N   0  0  0  0  0  0  0  0  0  0  0  0
    1.1575    1.2376    0.1493 C   0  0  0  0  0  0  0  0  0  0  0  0
    2.1968    1.2624    1.2781 C   0  0  0  0  0  0  0  0  0  0  0  0
    3.4858    1.9247    0.7800 C   0  0  0  0  0  0  0  0  0  0  0  0
    1.7142    0.6443   -1.1433 C   0  0  0  0  0  0  0  0  0  0  0  0
    3.0724    0.7156   -1.3084 N   0  0  0  0  0  0  0  0  0  0  0  0
    4.0167    1.2671   -0.4805 C   0  0  0  0  0  0  0  0  0  0  0  0
    5.1840    1.2315   -0.7831 O   0  0  0  0  0  0  0  0  0  0  0  0
    1.0067    0.1455   -1.9837 O   0  0  0  0  0  0  0  0  0  0  0  0
   -2.1373    0.2511    0.9749 C   0  0  0  0  0  0  0  0  0  0  0  0
   -3.4544    0.3331    1.2028 C   0  0  0  0  0  0  0  0  0  0  0  0
   -4.0985   -0.7968    1.5448 C   0  0  0  0  0  0  0  0  0  0  0  0
   -3.4405   -1.9660    1.6537 C   0  0  0  0  0  0  0  0  0  0  0  0
   -2.1177   -2.0416    1.4242 C   0  0  0  0  0  0  0  0  0  0  0  0
   -1.4830   -0.9126    1.0843 C   0  0  0  0  0  0  0  0  0  0  0  0
   -0.1654   -0.7669    0.8114 C   0  0  0  0  0  0  0  0  0  0  0  0
    0.7628   -1.5372    0.7893 O   0  0  0  0  0  0  0  0  0  0  0  0
    0.9574    2.3015   -0.1289 H   0  0  0  0  0  0  0  0  0  0  0  0
    2.4354    0.2304    1.6236 H   0  0  0  0  0  0  0  0  0  0  0  0
    1.7909    1.8179    2.1567 H   0  0  0  0  0  0  0  0  0  0  0  0
    4.2680    1.8875    1.5743 H   0  0  0  0  0  0  0  0  0  0  0  0
    3.2987    2.9992    0.5458 H   0  0  0  0  0  0  0  0  0  0  0  0
    3.4294    0.3037   -2.1567 H   0  0  0  0  0  0  0  0  0  0  0  0
   -3.9953    1.2887    1.1145 H   0  0  0  0  0  0  0  0  0  0  0  0
   -5.1840   -0.7634    1.7389 H   0  0  0  0  0  0  0  0  0  0  0  0
   -3.9941   -2.8776    1.9359 H   0  0  0  0  0  0  0  0  0  0  0  0
   -1.5804   -2.9992    1.5137 H   0  0  0  0  0  0  0  0  0  0  0  0
  1  2  2  0      
  3  2  1  0      
  2 12  1  0      
  3  4  1  0      
  3 18  1  0      
  4  5  1  0      
  7  4  1  0      
  4 20  1  0      
  5  6  1  0      
  5 21  1  0      
  5 22  1  0      
  6  9  1  0      
  6 23  1  0      
  6 24  1  0      
  8  7  1  0      
  7 11  2  0      
  8  9  1  0      
  8 25  1  0      
  9 10  2  0      
 12 13  1  0      
 12 17  2  0      
 13 14  2  0      
 13 26  1  0      
 14 15  1  0      
 14 27  1  0      
 15 16  2  0      
 15 28  1  0      
 16 17  1  0      
 16 29  1  0      
 17 18  1  0      
 18 19  2  0      
M  END
