
  Chem3D Core 15.003291616373D

  0  0  0     0  0              0 V3000
M  V30 BEGIN CTAB
M  V30 COUNTS 35 37 0 0 0
M  V30 BEGIN ATOM
M  V30 1 O -1.621206 2.102702 0.725945 0
M  V30 2 C -0.602547 1.458579 0.619849 0
M  V30 3 N 0.607714 2.069037 0.454706 0
M  V30 4 C 0.764035 3.521920 0.407126 0
M  V30 5 C 2.228814 3.817966 0.188636 0
M  V30 6 C 2.646437 4.583576 -0.835314 0
M  V30 7 C 3.952638 4.828854 -1.023295 0
M  V30 8 C 4.861731 4.306846 -0.186147 0
M  V30 9 C 4.457729 3.540086 0.837762 0
M  V30 10 C 3.150259 3.299345 1.020478 0
M  V30 11 C -0.560649 0.098150 0.655373 0
M  V30 12 C 0.547987 -0.650841 0.542408 0
M  V30 13 S 0.227017 -2.076138 0.625032 0
M  V30 14 C -1.215796 -1.875231 0.795783 0
M  V30 15 N -1.939720 -2.910249 0.917319 0
M  V30 16 C -3.197031 -3.024350 1.076799 0
M  V30 17 C -3.675082 -4.280520 1.174885 0
M  V30 18 C -4.995726 -4.450066 1.344131 0
M  V30 19 N -5.790730 -3.469591 1.412630 0
M  V30 20 C -5.254259 -2.328099 1.310770 0
M  V30 21 N -4.025913 -2.066216 1.150147 0
M  V30 22 N -1.564136 -0.657159 0.801150 0
M  V30 23 H 1.453951 1.507527 0.376621 0
M  V30 24 H 0.135273 3.939674 -0.411925 0
M  V30 25 H 0.440210 3.975517 1.372473 0
M  V30 26 H 1.914569 5.018914 -1.535533 0
M  V30 27 H 4.280124 5.458679 -1.867495 0
M  V30 28 H 5.935448 4.506347 -0.339300 0
M  V30 29 H 5.200713 3.108022 1.528965 0
M  V30 30 H 2.834665 2.667575 1.867495 0
M  V30 31 H 1.578775 -0.299198 0.405912 0
M  V30 32 H -1.430324 -3.830223 0.882529 0
M  V30 33 H -3.018197 -5.164887 1.120629 0
M  V30 34 H -5.432693 -5.458679 1.429557 0
M  V30 35 H -5.935448 -1.461644 1.368679 0
M  V30 END ATOM
M  V30 BEGIN BOND
M  V30 1 2 1 2
M  V30 2 1 2 3
M  V30 3 1 2 11
M  V30 4 1 3 4
M  V30 5 1 3 23
M  V30 6 1 4 5
M  V30 7 1 4 24
M  V30 8 1 4 25
M  V30 9 1 5 6
M  V30 10 2 5 10
M  V30 11 2 6 7
M  V30 12 1 6 26
M  V30 13 1 7 8
M  V30 14 1 7 27
M  V30 15 2 8 9
M  V30 16 1 8 28
M  V30 17 1 9 10
M  V30 18 1 9 29
M  V30 19 1 10 30
M  V30 20 2 11 12
M  V30 21 1 11 22
M  V30 22 1 12 13
M  V30 23 1 12 31
M  V30 24 1 13 14
M  V30 25 1 14 15
M  V30 26 2 14 22
M  V30 27 1 15 16
M  V30 28 1 15 32
M  V30 29 1 16 17
M  V30 30 2 16 21
M  V30 31 2 17 18
M  V30 32 1 17 33
M  V30 33 1 18 19
M  V30 34 1 18 34
M  V30 35 2 19 20
M  V30 36 1 20 21
M  V30 37 1 20 35
M  V30 END BOND
M  V30 END CTAB
M  END
