
  Chem3D Core 14.010291513143D

  0  0  0     0  0              0 V3000
M  V30 BEGIN CTAB
M  V30 COUNTS 21 23 0 0 0
M  V30 BEGIN ATOM
M  V30 1 S 3.708893 -1.856622 -1.477751 0
M  V30 2 N 0.978228 0.660728 0.623728 0
M  V30 3 N -0.533992 -0.378495 -0.373929 0
M  V30 4 N 1.411378 -1.924465 -1.651149 0
M  V30 5 C -0.111823 1.166205 1.018209 0
M  V30 6 C -1.070758 0.491495 0.371553 0
M  V30 7 C 0.719781 -0.262744 -0.209100 0
M  V30 8 C 1.656460 -1.003290 -0.820653 0
M  V30 9 C -0.385470 2.151348 1.878911 0
M  V30 10 C -2.360694 0.789342 0.571441 0
M  V30 11 C -1.680896 2.450368 2.079295 0
M  V30 12 C -2.653337 1.778531 1.434540 0
M  V30 13 C 2.983250 -0.888141 -0.653087 0
M  V30 14 C 2.494444 -2.436030 -2.052269 0
M  V30 15 H 1.929369 0.959173 0.935793 0
M  V30 16 H 0.420231 2.692435 2.399219 0
M  V30 17 H -3.155234 0.238784 0.043095 0
M  V30 18 H -1.948628 3.257576 2.781916 0
M  V30 19 H -3.708893 2.042915 1.616247 0
M  V30 20 H 3.493362 -0.173465 0.006578 0
M  V30 21 H 2.501517 -3.257576 -2.781916 0
M  V30 END ATOM
M  V30 BEGIN BOND
M  V30 1 1 13 1
M  V30 2 1 1 14
M  V30 3 1 2 5
M  V30 4 1 2 7
M  V30 5 1 2 15
M  V30 6 1 3 6
M  V30 7 2 7 3
M  V30 8 1 8 4
M  V30 9 2 14 4
M  V30 10 1 6 5
M  V30 11 2 9 5
M  V30 12 2 6 10
M  V30 13 1 7 8
M  V30 14 2 8 13
M  V30 15 1 11 9
M  V30 16 1 9 16
M  V30 17 1 10 12
M  V30 18 1 10 17
M  V30 19 2 12 11
M  V30 20 1 11 18
M  V30 21 1 12 19
M  V30 22 1 13 20
M  V30 23 1 14 21
M  V30 END BOND
M  V30 END CTAB
M  END
