
  Chem3D Core 14.010291513153D

  0  0  0     0  0              0 V3000
M  V30 BEGIN CTAB
M  V30 COUNTS 35 35 0 0 0
M  V30 BEGIN ATOM
M  V30 1 S -3.157955 2.660637 -2.080530 0
M  V30 2 O -1.467476 -1.763907 -2.649660 0
M  V30 3 O 0.796293 1.284785 0.198032 0
M  V30 4 N -2.136090 0.315816 -2.323728 0
M  V30 5 N -1.059556 1.799200 -0.874831 0
M  V30 6 C -0.471208 -0.592343 -0.734599 0
M  V30 7 C 0.833519 -1.434069 -0.938737 0
M  V30 8 C 1.550253 -2.062293 0.284288 0
M  V30 9 C -1.305403 -1.139195 0.450377 0
M  V30 10 C 1.826959 -0.754751 -1.901327 0
M  V30 11 C -1.364862 -0.760801 -1.985975 0
M  V30 12 C -0.153797 0.881122 -0.423375 0
M  V30 13 C 2.237537 -1.137778 1.299276 0
M  V30 14 C -2.632612 -0.444775 0.636817 0
M  V30 15 C -2.098062 1.545318 -1.726817 0
M  V30 16 C 3.038969 -1.932867 2.341607 0
M  V30 17 C -2.861884 0.490323 1.569817 0
M  V30 18 H -2.785049 0.159094 -3.080884 0
M  V30 19 H -0.907903 2.745106 -0.556901 0
M  V30 20 H 0.516264 -2.364020 -1.481452 0
M  V30 21 H 0.848961 -2.732428 0.835101 0
M  V30 22 H 2.343529 -2.745106 -0.109974 0
M  V30 23 H -1.504079 -2.228737 0.318404 0
M  V30 24 H -0.726319 -1.033077 1.395599 0
M  V30 25 H 2.636600 -1.454996 -2.209874 0
M  V30 26 H 1.318231 -0.412929 -2.831334 0
M  V30 27 H 2.324851 0.129626 -1.449783 0
M  V30 28 H 2.933579 -0.441336 0.775487 0
M  V30 29 H 1.478036 -0.534054 1.847667 0
M  V30 30 H -3.451720 -0.722916 -0.048323 0
M  V30 31 H 3.519982 -1.251505 3.080884 0
M  V30 32 H 2.381824 -2.633572 2.905896 0
M  V30 33 H 3.847068 -2.530824 1.861602 0
M  V30 34 H -3.847068 0.973684 1.658362 0
M  V30 35 H -2.073771 0.807711 2.268972 0
M  V30 END ATOM
M  V30 BEGIN BOND
M  V30 1 2 1 15
M  V30 2 2 2 11
M  V30 3 2 3 12
M  V30 4 1 11 4
M  V30 5 1 4 15
M  V30 6 1 4 18
M  V30 7 1 12 5
M  V30 8 1 15 5
M  V30 9 1 5 19
M  V30 10 1 6 7
M  V30 11 1 6 9
M  V30 12 1 6 11
M  V30 13 1 12 6
M  V30 14 1 7 8
M  V30 15 1 7 10
M  V30 16 1 7 20
M  V30 17 1 8 13
M  V30 18 1 8 21
M  V30 19 1 8 22
M  V30 20 1 9 14
M  V30 21 1 9 23
M  V30 22 1 9 24
M  V30 23 1 10 25
M  V30 24 1 10 26
M  V30 25 1 10 27
M  V30 26 1 13 16
M  V30 27 1 13 28
M  V30 28 1 13 29
M  V30 29 2 14 17
M  V30 30 1 14 30
M  V30 31 1 16 31
M  V30 32 1 16 32
M  V30 33 1 16 33
M  V30 34 1 17 34
M  V30 35 1 17 35
M  V30 END BOND
M  V30 END CTAB
M  END
