
  Chem3D Core 14.010291514573D

  0  0  0     0  0              0 V3000
M  V30 BEGIN CTAB
M  V30 COUNTS 59 62 0 0 0
M  V30 BEGIN ATOM
M  V30 1 S -4.317807 2.914218 0.547086 0
M  V30 2 S 1.044503 4.789729 -2.050981 0
M  V30 3 O -4.466960 1.482728 0.829736 0
M  V30 4 O -5.518647 3.685583 0.209839 0
M  V30 5 N -1.892054 -2.093036 -2.001028 0
M  V30 6 N -3.692784 -4.357071 -2.214220 0
M  V30 7 N -4.186908 3.443608 2.173731 0
M  V30 8 C -1.558878 -3.273500 -2.787520 0
M  V30 9 C -2.776833 -2.473701 -0.909306 0
M  V30 10 C -2.823935 -3.970433 -3.314020 0
M  V30 11 C -4.038739 -3.180986 -1.432711 0
M  V30 12 C -0.677567 -1.420924 -1.543000 0
M  V30 13 C -0.946303 -0.107496 -0.776491 0
M  V30 14 C -4.882639 -5.041710 -2.695097 0
M  V30 15 C 0.320386 0.707051 -0.565075 0
M  V30 16 C 0.538184 2.044470 -0.684756 0
M  V30 17 C -0.512901 2.905705 -0.771803 0
M  V30 18 C 1.833674 2.471572 -0.744431 0
M  V30 19 C -0.462727 4.140794 -1.307402 0
M  V30 20 C -1.708147 2.617995 -0.208901 0
M  V30 21 C 2.214724 3.654193 -1.273260 0
M  V30 22 C -2.792655 3.410451 -0.249725 0
M  V30 23 C -1.520032 4.968238 -1.366826 0
M  V30 24 C 2.867404 1.748646 -0.247752 0
M  V30 25 C -2.701818 4.600016 -0.858008 0
M  V30 26 C 3.489959 4.078285 -1.320998 0
M  V30 27 C 4.149306 2.147321 -0.277124 0
M  V30 28 C 4.474988 3.325152 -0.819252 0
M  V30 29 C -4.073873 4.890382 2.327691 0
M  V30 30 C -3.123625 2.802813 2.940580 0
M  V30 31 H -0.926701 -2.986552 -3.662602 0
M  V30 32 H -0.968500 -4.000369 -2.179201 0
M  V30 33 H -3.117314 -1.573379 -0.345286 0
M  V30 34 H -2.247683 -3.141180 -0.187859 0
M  V30 35 H -3.355106 -3.287111 -4.019377 0
M  V30 36 H -2.519629 -4.873884 -3.895998 0
M  V30 37 H -4.671399 -3.475760 -0.560590 0
M  V30 38 H -4.635787 -2.461750 -2.043714 0
M  V30 39 H -0.060241 -1.158276 -2.437481 0
M  V30 40 H -0.063551 -2.105737 -0.910262 0
M  V30 41 H -1.350409 -0.366954 0.231138 0
M  V30 42 H -1.700033 0.446832 -1.383119 0
M  V30 43 H -5.522918 -5.367367 -1.843369 0
M  V30 44 H -4.608189 -5.962609 -3.259072 0
M  V30 45 H -5.494963 -4.393747 -3.363234 0
M  V30 46 H 1.152234 -0.006931 -0.477247 0
M  V30 47 H -1.826873 1.719839 0.410492 0
M  V30 48 H -1.442849 5.962609 -1.839168 0
M  V30 49 H 2.739022 0.791289 0.279893 0
M  V30 50 H -3.563608 5.284493 -0.918372 0
M  V30 51 H 3.758933 5.046997 -1.776149 0
M  V30 52 H 4.942225 1.517497 0.162195 0
M  V30 53 H 5.522918 3.665917 -0.847495 0
M  V30 54 H -4.901533 5.439351 1.824742 0
M  V30 55 H -4.141394 5.177606 3.402299 0
M  V30 56 H -3.106926 5.279914 1.934639 0
M  V30 57 H -3.182790 1.691610 2.909806 0
M  V30 58 H -2.110921 3.109751 2.592689 0
M  V30 59 H -3.202955 3.070708 4.019377 0
M  V30 END ATOM
M  V30 BEGIN BOND
M  V30 1 2 1 3
M  V30 2 2 1 4
M  V30 3 1 1 7
M  V30 4 1 1 22
M  V30 5 1 19 2
M  V30 6 1 2 21
M  V30 7 1 5 8
M  V30 8 1 5 9
M  V30 9 1 5 12
M  V30 10 1 10 6
M  V30 11 1 6 11
M  V30 12 1 6 14
M  V30 13 1 7 29
M  V30 14 1 7 30
M  V30 15 1 8 10
M  V30 16 1 8 31
M  V30 17 1 8 32
M  V30 18 1 11 9
M  V30 19 1 9 33
M  V30 20 1 9 34
M  V30 21 1 10 35
M  V30 22 1 10 36
M  V30 23 1 11 37
M  V30 24 1 11 38
M  V30 25 1 12 13
M  V30 26 1 12 39
M  V30 27 1 12 40
M  V30 28 1 13 15
M  V30 29 1 13 41
M  V30 30 1 13 42
M  V30 31 1 14 43
M  V30 32 1 14 44
M  V30 33 1 14 45
M  V30 34 2 15 16
M  V30 35 1 15 46
M  V30 36 1 16 17
M  V30 37 1 16 18
M  V30 38 2 17 19
M  V30 39 1 17 20
M  V30 40 2 21 18
M  V30 41 1 24 18
M  V30 42 1 23 19
M  V30 43 2 20 22
M  V30 44 1 20 47
M  V30 45 1 21 26
M  V30 46 1 22 25
M  V30 47 2 25 23
M  V30 48 1 23 48
M  V30 49 2 27 24
M  V30 50 1 24 49
M  V30 51 1 25 50
M  V30 52 2 26 28
M  V30 53 1 26 51
M  V30 54 1 28 27
M  V30 55 1 27 52
M  V30 56 1 28 53
M  V30 57 1 29 54
M  V30 58 1 29 55
M  V30 59 1 29 56
M  V30 60 1 30 57
M  V30 61 1 30 58
M  V30 62 1 30 59
M  V30 END BOND
M  V30 END CTAB
M  END
