
  Chem3D Core 14.010291514563D

  0  0  0     0  0              0 V3000
M  V30 BEGIN CTAB
M  V30 COUNTS 51 54 0 0 0
M  V30 BEGIN ATOM
M  V30 1 S -0.000808 4.830234 0.992313 0
M  V30 2 S -4.524138 0.501013 0.862278 0
M  V30 3 N 1.419097 -2.510047 -1.316602 0
M  V30 4 N 0.200704 2.072789 -0.279035 0
M  V30 5 C 0.304387 -1.841234 -0.638754 0
M  V30 6 C -0.199586 -2.715680 0.531388 0
M  V30 7 C 0.654619 -0.433152 -0.093552 0
M  V30 8 C -0.616248 -4.112999 0.062202 0
M  V30 9 C 1.037006 -3.833053 -1.802465 0
M  V30 10 C 0.560600 -4.756204 -0.672989 0
M  V30 11 C 0.260361 0.743404 -1.008486 0
M  V30 12 C 1.960596 -1.730326 -2.420209 0
M  V30 13 C -0.947655 2.325884 0.252606 0
M  V30 14 C 1.296045 2.752178 -0.318481 0
M  V30 15 C -1.211496 3.497326 0.871936 0
M  V30 16 C 1.392699 3.992612 0.208900 0
M  V30 17 C -1.997738 1.467057 0.292230 0
M  V30 18 C 2.467935 2.317569 -0.844312 0
M  V30 19 C -2.389821 3.803181 1.443584 0
M  V30 20 C 2.512999 4.736832 0.195177 0
M  V30 21 C -3.184216 1.740188 0.859692 0
M  V30 22 C 3.603603 3.033528 -0.873905 0
M  V30 23 C -3.397684 2.924324 1.441809 0
M  V30 24 C 3.636829 4.263880 -0.353583 0
M  V30 25 C -3.872158 -0.475340 2.247339 0
M  V30 26 H -0.550411 -1.741848 -1.352399 0
M  V30 27 H 0.606735 -2.805134 1.297999 0
M  V30 28 H -1.078653 -2.237502 1.026379 0
M  V30 29 H 0.111354 -0.277155 0.867721 0
M  V30 30 H 1.728696 -0.380756 0.194591 0
M  V30 31 H -0.924229 -4.742508 0.930645 0
M  V30 32 H -1.494138 -4.036086 -0.622474 0
M  V30 33 H 1.908890 -4.330845 -2.292774 0
M  V30 34 H 0.234568 -3.749859 -2.574094 0
M  V30 35 H 1.398964 -4.932599 0.042784 0
M  V30 36 H 0.259315 -5.749849 -1.082708 0
M  V30 37 H -0.676561 0.538923 -1.568147 0
M  V30 38 H 0.862363 0.781828 -1.937575 0
M  V30 39 H 2.760718 -2.289301 -2.956824 0
M  V30 40 H 2.461748 -0.808902 -2.055283 0
M  V30 41 H 1.175353 -1.456272 -3.161237 0
M  V30 42 H -1.961074 0.446896 -0.113450 0
M  V30 43 H 2.613726 1.317924 -1.274599 0
M  V30 44 H -2.559227 4.779156 1.930499 0
M  V30 45 H 2.540158 5.749849 0.632476 0
M  V30 46 H 4.522977 2.610375 -1.314866 0
M  V30 47 H -4.360994 3.172692 1.915987 0
M  V30 48 H 4.562341 4.862373 -0.366510 0
M  V30 49 H -4.562341 -1.324317 2.450534 0
M  V30 50 H -2.867634 -0.883783 1.999006 0
M  V30 51 H -3.799199 0.155701 3.161237 0
M  V30 END ATOM
M  V30 BEGIN BOND
M  V30 1 1 15 1
M  V30 2 1 1 16
M  V30 3 1 2 21
M  V30 4 1 2 25
M  V30 5 1 3 5
M  V30 6 1 3 9
M  V30 7 1 3 12
M  V30 8 1 4 11
M  V30 9 1 4 13
M  V30 10 1 4 14
M  V30 11 1 5 6
M  V30 12 1 5 7
M  V30 13 1 5 26
M  V30 14 1 6 8
M  V30 15 1 6 27
M  V30 16 1 6 28
M  V30 17 1 7 11
M  V30 18 1 7 29
M  V30 19 1 7 30
M  V30 20 1 8 10
M  V30 21 1 8 31
M  V30 22 1 8 32
M  V30 23 1 10 9
M  V30 24 1 9 33
M  V30 25 1 9 34
M  V30 26 1 10 35
M  V30 27 1 10 36
M  V30 28 1 11 37
M  V30 29 1 11 38
M  V30 30 1 12 39
M  V30 31 1 12 40
M  V30 32 1 12 41
M  V30 33 2 13 15
M  V30 34 1 13 17
M  V30 35 2 16 14
M  V30 36 1 18 14
M  V30 37 1 19 15
M  V30 38 1 16 20
M  V30 39 2 17 21
M  V30 40 1 17 42
M  V30 41 2 22 18
M  V30 42 1 18 43
M  V30 43 2 23 19
M  V30 44 1 19 44
M  V30 45 2 20 24
M  V30 46 1 20 45
M  V30 47 1 21 23
M  V30 48 1 24 22
M  V30 49 1 22 46
M  V30 50 1 23 47
M  V30 51 1 24 48
M  V30 52 1 25 49
M  V30 53 1 25 50
M  V30 54 1 25 51
M  V30 END BOND
M  V30 END CTAB
M  END
