
  Chem3D Core 14.010291514533D

  0  0  0     0  0              0 V3000
M  V30 BEGIN CTAB
M  V30 COUNTS 60 63 0 0 0
M  V30 BEGIN ATOM
M  V30 1 S 0.516899 5.106808 1.453261 0
M  V30 2 S -3.303250 0.254952 0.524697 0
M  V30 3 O -2.679840 -1.044352 0.254305 0
M  V30 4 O -4.573185 0.572486 -0.135556 0
M  V30 5 N 2.816466 -2.296118 -0.042998 0
M  V30 6 N 2.926801 -4.454340 -1.980437 0
M  V30 7 N 1.236662 2.167533 1.768970 0
M  V30 8 N -3.946304 -0.119006 2.070822 0
M  V30 9 C 3.066584 -3.677006 0.350243 0
M  V30 10 C 2.009233 -2.281029 -1.254670 0
M  V30 11 C 2.206220 -1.554228 1.057211 0
M  V30 12 C 3.746038 -4.467585 -0.779504 0
M  V30 13 C 2.681467 -3.079637 -2.384935 0
M  V30 14 C 2.026013 -0.049975 0.782283 0
M  V30 15 C 1.563158 0.711784 2.037374 0
M  V30 16 C 3.545713 -5.219163 -3.051768 0
M  V30 17 C 0.010482 2.377099 1.427251 0
M  V30 18 C 2.228580 2.973139 1.944149 0
M  V30 19 C -0.479878 3.619524 1.230516 0
M  V30 20 C 2.093842 4.313111 1.830388 0
M  V30 21 C -0.910759 1.410112 1.189991 0
M  V30 22 C -2.189636 1.624400 0.833030 0
M  V30 23 C 3.502620 2.598793 2.221944 0
M  V30 24 C -1.748970 3.878331 0.871103 0
M  V30 25 C -2.618849 2.882083 0.673989 0
M  V30 26 C 3.097317 5.192531 1.999628 0
M  V30 27 C 4.526369 3.450334 2.395911 0
M  V30 28 C 4.331522 4.768085 2.290044 0
M  V30 29 C -4.726225 0.955566 2.675917 0
M  V30 30 C -2.968002 -0.599259 3.041291 0
M  V30 31 H 3.732502 -3.707039 1.246619 0
M  V30 32 H 2.113634 -4.186886 0.631141 0
M  V30 33 H 1.874535 -1.238308 -1.626230 0
M  V30 34 H 0.993053 -2.698927 -1.057157 0
M  V30 35 H 2.860816 -1.642494 1.958302 0
M  V30 36 H 1.217232 -1.995107 1.328448 0
M  V30 37 H 4.753750 -4.031008 -0.980674 0
M  V30 38 H 3.904169 -5.518792 -0.436768 0
M  V30 39 H 2.015928 -3.059954 -3.281839 0
M  V30 40 H 3.635847 -2.576116 -2.672486 0
M  V30 41 H 1.273130 0.107244 -0.022819 0
M  V30 42 H 2.985624 0.377566 0.409144 0
M  V30 43 H 2.267955 0.568228 2.882810 0
M  V30 44 H 0.739800 0.179765 2.560325 0
M  V30 45 H 2.892988 -5.234881 -3.954623 0
M  V30 46 H 3.693689 -6.280212 -2.745642 0
M  V30 47 H 4.535569 -4.800253 -3.344825 0
M  V30 48 H -0.670494 0.340487 1.240929 0
M  V30 49 H 3.834465 1.553817 2.303451 0
M  V30 50 H -2.109123 4.912545 0.733082 0
M  V30 51 H -3.658219 3.107975 0.385089 0
M  V30 52 H 2.935826 6.280212 1.904451 0
M  V30 53 H 5.540346 3.072371 2.614572 0
M  V30 54 H 5.162868 5.478842 2.426289 0
M  V30 55 H -5.540346 1.319359 2.009420 0
M  V30 56 H -5.239063 0.597191 3.598126 0
M  V30 57 H -4.092023 1.826370 2.959851 0
M  V30 58 H -2.369349 -1.456174 2.658468 0
M  V30 59 H -2.264909 0.202588 3.362864 0
M  V30 60 H -3.478786 -0.982445 3.954623 0
M  V30 END ATOM
M  V30 BEGIN BOND
M  V30 1 1 19 1
M  V30 2 1 1 20
M  V30 3 2 2 3
M  V30 4 2 2 4
M  V30 5 1 2 8
M  V30 6 1 2 22
M  V30 7 1 5 9
M  V30 8 1 5 10
M  V30 9 1 5 11
M  V30 10 1 12 6
M  V30 11 1 6 13
M  V30 12 1 6 16
M  V30 13 1 7 15
M  V30 14 1 7 17
M  V30 15 1 7 18
M  V30 16 1 8 29
M  V30 17 1 8 30
M  V30 18 1 9 12
M  V30 19 1 9 31
M  V30 20 1 9 32
M  V30 21 1 13 10
M  V30 22 1 10 33
M  V30 23 1 10 34
M  V30 24 1 11 14
M  V30 25 1 11 35
M  V30 26 1 11 36
M  V30 27 1 12 37
M  V30 28 1 12 38
M  V30 29 1 13 39
M  V30 30 1 13 40
M  V30 31 1 14 15
M  V30 32 1 14 41
M  V30 33 1 14 42
M  V30 34 1 15 43
M  V30 35 1 15 44
M  V30 36 1 16 45
M  V30 37 1 16 46
M  V30 38 1 16 47
M  V30 39 2 17 19
M  V30 40 1 17 21
M  V30 41 2 20 18
M  V30 42 1 23 18
M  V30 43 1 24 19
M  V30 44 1 20 26
M  V30 45 2 21 22
M  V30 46 1 21 48
M  V30 47 1 22 25
M  V30 48 2 27 23
M  V30 49 1 23 49
M  V30 50 2 25 24
M  V30 51 1 24 50
M  V30 52 1 25 51
M  V30 53 2 26 28
M  V30 54 1 26 52
M  V30 55 1 28 27
M  V30 56 1 27 53
M  V30 57 1 28 54
M  V30 58 1 29 55
M  V30 59 1 29 56
M  V30 60 1 29 57
M  V30 61 1 30 58
M  V30 62 1 30 59
M  V30 63 1 30 60
M  V30 END BOND
M  V30 END CTAB
M  END
