
  Chem3D Core 14.010291513183D

  0  0  0     0  0              0 V3000
M  V30 BEGIN CTAB
M  V30 COUNTS 34 34 0 0 0
M  V30 BEGIN ATOM
M  V30 1 S -1.021233 2.495060 -3.229736 0
M  V30 2 O -2.603011 -1.658651 -1.460582 0
M  V30 3 O -0.260758 1.316105 1.335148 0
M  V30 4 N -1.836298 0.297366 -2.177049 0
M  V30 5 N -0.607398 1.745126 -0.807713 0
M  V30 6 C -0.922040 -0.579218 -0.057465 0
M  V30 7 C 0.348861 -1.412720 -0.421978 0
M  V30 8 C 1.212602 -1.979921 0.731965 0
M  V30 9 C -1.656505 -1.172230 1.173955 0
M  V30 10 C -1.873586 -0.717494 -1.262573 0
M  V30 11 C -0.564168 0.882166 0.251398 0
M  V30 12 C 1.249740 -0.746057 -1.480972 0
M  V30 13 C 1.990057 -0.973284 1.592601 0
M  V30 14 C -2.989375 -0.482685 1.511310 0
M  V30 15 C -1.132289 1.463284 -2.039846 0
M  V30 16 C 2.965320 -1.675676 2.549150 0
M  V30 17 H -2.386859 0.151170 -3.010504 0
M  V30 18 H -0.256551 2.673924 -0.625096 0
M  V30 19 H -0.042619 -2.342964 -0.917759 0
M  V30 20 H 0.597871 -2.629896 1.396701 0
M  V30 21 H 1.963901 -2.673924 0.281082 0
M  V30 22 H -1.849351 -2.260035 1.016091 0
M  V30 23 H -1.011612 -1.108702 2.081112 0
M  V30 24 H 2.114540 -1.395394 -1.747047 0
M  V30 25 H 0.704577 -0.557952 -2.432191 0
M  V30 26 H 1.665783 0.223155 -1.129442 0
M  V30 27 H 2.565462 -0.269328 0.947910 0
M  V30 28 H 1.285410 -0.371849 2.208605 0
M  V30 29 H -3.453217 -0.942361 2.414537 0
M  V30 30 H -2.853312 0.600568 1.727471 0
M  V30 31 H -3.730095 -0.570532 0.685858 0
M  V30 32 H 3.506625 -0.935878 3.183055 0
M  V30 33 H 2.427409 -2.374750 3.229736 0
M  V30 34 H 3.730095 -2.261030 1.989300 0
M  V30 END ATOM
M  V30 BEGIN BOND
M  V30 1 2 1 15
M  V30 2 2 2 10
M  V30 3 2 3 11
M  V30 4 1 10 4
M  V30 5 1 4 15
M  V30 6 1 4 17
M  V30 7 1 11 5
M  V30 8 1 15 5
M  V30 9 1 5 18
M  V30 10 1 6 7
M  V30 11 1 6 9
M  V30 12 1 6 10
M  V30 13 1 11 6
M  V30 14 1 7 8
M  V30 15 1 7 12
M  V30 16 1 7 19
M  V30 17 1 8 13
M  V30 18 1 8 20
M  V30 19 1 8 21
M  V30 20 1 9 14
M  V30 21 1 9 22
M  V30 22 1 9 23
M  V30 23 1 12 24
M  V30 24 1 12 25
M  V30 25 1 12 26
M  V30 26 1 13 16
M  V30 27 1 13 27
M  V30 28 1 13 28
M  V30 29 1 14 29
M  V30 30 1 14 30
M  V30 31 1 14 31
M  V30 32 1 16 32
M  V30 33 1 16 33
M  V30 34 1 16 34
M  V30 END BOND
M  V30 END CTAB
M  END
