
  Chem3D Core 14.010291514593D

  0  0  0     0  0              0 V3000
M  V30 BEGIN CTAB
M  V30 COUNTS 25 25 0 0 0
M  V30 BEGIN ATOM
M  V30 1 C 2.544558 1.363103 -0.813802 0
M  V30 2 C 1.089183 1.743289 -0.486818 0
M  V30 3 C 1.045097 2.728642 0.692591 0
M  V30 4 C 0.162360 0.566150 -0.201558 0
M  V30 5 C 0.632177 -0.567498 0.351013 0
M  V30 6 C -0.167526 -1.612036 0.610592 0
M  V30 7 C -1.477935 -1.548687 0.329388 0
M  V30 8 C -2.407704 -2.704808 0.610133 0
M  V30 9 C -1.944966 -0.411830 -0.210981 0
M  V30 10 C -1.156566 0.643323 -0.483035 0
M  V30 11 O -1.710887 1.767449 -1.015928 0
M  V30 12 H 3.117372 2.253211 -1.162635 0
M  V30 13 H 3.091994 0.969276 0.071107 0
M  V30 14 H 2.590306 0.602787 -1.627085 0
M  V30 15 H 0.716742 2.268401 -1.402472 0
M  V30 16 H 0.009032 3.090315 0.884056 0
M  V30 17 H 1.678235 3.623581 0.494883 0
M  V30 18 H 1.415610 2.248823 1.627085 0
M  V30 19 H 1.696563 -0.666797 0.613423 0
M  V30 20 H 0.258035 -2.522659 1.063621 0
M  V30 21 H -1.863522 -3.623581 0.923668 0
M  V30 22 H -3.117372 -2.435347 1.425270 0
M  V30 23 H -2.996391 -2.963737 -0.299236 0
M  V30 24 H -3.021758 -0.337780 -0.438867 0
M  V30 25 H -1.052924 2.478386 -1.052855 0
M  V30 END ATOM
M  V30 BEGIN BOND
M  V30 1 1 1 2
M  V30 2 1 1 12
M  V30 3 1 1 13
M  V30 4 1 1 14
M  V30 5 1 2 3
M  V30 6 1 2 4
M  V30 7 1 2 15
M  V30 8 1 3 16
M  V30 9 1 3 17
M  V30 10 1 3 18
M  V30 11 1 4 5
M  V30 12 2 4 10
M  V30 13 2 5 6
M  V30 14 1 5 19
M  V30 15 1 6 7
M  V30 16 1 6 20
M  V30 17 1 7 8
M  V30 18 2 7 9
M  V30 19 1 8 21
M  V30 20 1 8 22
M  V30 21 1 8 23
M  V30 22 1 9 10
M  V30 23 1 9 24
M  V30 24 1 10 11
M  V30 25 1 11 25
M  V30 END BOND
M  V30 END CTAB
M  END
