
  Chem3D Core 14.010291515003D

  0  0  0     0  0              0 V3000
M  V30 BEGIN CTAB
M  V30 COUNTS 50 52 0 0 0
M  V30 BEGIN ATOM
M  V30 1 S 3.250958 2.705826 1.272539 0
M  V30 2 S 1.192581 -0.113227 -2.353135 0
M  V30 3 O -4.134139 -4.089659 3.229330 0
M  V30 4 O -2.006475 -3.410556 2.884521 0
M  V30 5 N -2.143860 -0.615259 1.574971 0
M  V30 6 C -3.800417 -1.757736 3.055983 0
M  V30 7 C -2.757486 -0.633707 2.899940 0
M  V30 8 C -4.885017 -1.572048 1.982996 0
M  V30 9 C -4.232161 -1.536265 0.598131 0
M  V30 10 C -3.152397 -0.444434 0.537202 0
M  V30 11 C -1.099045 0.406000 1.516443 0
M  V30 12 C -0.303925 0.423544 0.193639 0
M  V30 13 C -3.181020 -3.151991 3.031452 0
M  V30 14 C 0.924904 1.306302 0.277929 0
M  V30 15 C 2.084104 1.256395 -0.426688 0
M  V30 16 C 3.104082 2.077514 -0.059180 0
M  V30 17 C 2.258698 0.435894 -1.492156 0
M  V30 18 C 3.996680 2.646242 -0.904581 0
M  V30 19 C 3.415924 -0.211220 -1.768196 0
M  V30 20 C 4.827463 3.454514 -0.233405 0
M  V30 21 C 3.262179 -1.013054 -2.829724 0
M  V30 22 C 4.046408 2.604152 -2.415428 0
M  V30 23 C 4.697461 -0.251303 -0.966203 0
M  V30 24 C 4.462943 3.486421 1.048459 0
M  V30 25 C 1.992761 -0.957859 -3.233589 0
M  V30 26 H -5.007300 -3.686873 3.356273 0
M  V30 27 H -4.271816 -1.661337 4.066904 0
M  V30 28 H -1.979293 -0.772236 3.688586 0
M  V30 29 H -3.246434 0.347620 3.111628 0
M  V30 30 H -5.653687 -2.377615 2.030370 0
M  V30 31 H -5.423427 -0.610300 2.159784 0
M  V30 32 H -3.772413 -2.528708 0.375386 0
M  V30 33 H -5.008270 -1.352728 -0.183182 0
M  V30 34 H -2.690538 -0.507612 -0.475944 0
M  V30 35 H -3.633973 0.558767 0.621940 0
M  V30 36 H -0.361779 0.204712 2.332723 0
M  V30 37 H -1.529863 1.418470 1.705527 0
M  V30 38 H -0.948326 0.835048 -0.618545 0
M  V30 39 H -0.019742 -0.631910 -0.025297 0
M  V30 40 H 0.780020 2.081880 1.049823 0
M  V30 41 H 5.653687 4.033391 -0.668093 0
M  V30 42 H 4.039423 -1.648840 -3.274925 0
M  V30 43 H 3.046123 2.435644 -2.869666 0
M  V30 44 H 4.371281 3.593868 -2.809702 0
M  V30 45 H 4.768813 1.863633 -2.817492 0
M  V30 46 H 4.528514 -0.053743 0.114619 0
M  V30 47 H 5.133876 -1.275305 -1.003938 0
M  V30 48 H 5.483802 0.432347 -1.348620 0
M  V30 49 H 4.949544 4.089659 1.826429 0
M  V30 50 H 1.572039 -1.536204 -4.066904 0
M  V30 END ATOM
M  V30 BEGIN BOND
M  V30 1 1 16 1
M  V30 2 1 24 1
M  V30 3 1 17 2
M  V30 4 1 25 2
M  V30 5 1 3 13
M  V30 6 1 3 26
M  V30 7 2 4 13
M  V30 8 1 5 7
M  V30 9 1 5 10
M  V30 10 1 5 11
M  V30 11 1 7 6
M  V30 12 1 6 8
M  V30 13 1 6 13
M  V30 14 1 6 27
M  V30 15 1 7 28
M  V30 16 1 7 29
M  V30 17 1 8 9
M  V30 18 1 8 30
M  V30 19 1 8 31
M  V30 20 1 9 10
M  V30 21 1 9 32
M  V30 22 1 9 33
M  V30 23 1 10 34
M  V30 24 1 10 35
M  V30 25 1 11 12
M  V30 26 1 11 36
M  V30 27 1 11 37
M  V30 28 1 12 14
M  V30 29 1 12 38
M  V30 30 1 12 39
M  V30 31 2 14 15
M  V30 32 1 14 40
M  V30 33 1 15 16
M  V30 34 1 15 17
M  V30 35 2 16 18
M  V30 36 2 17 19
M  V30 37 1 18 20
M  V30 38 1 18 22
M  V30 39 1 19 21
M  V30 40 1 19 23
M  V30 41 2 20 24
M  V30 42 1 20 41
M  V30 43 2 21 25
M  V30 44 1 21 42
M  V30 45 1 22 43
M  V30 46 1 22 44
M  V30 47 1 22 45
M  V30 48 1 23 46
M  V30 49 1 23 47
M  V30 50 1 23 48
M  V30 51 1 24 49
M  V30 52 1 25 50
M  V30 END BOND
M  V30 END CTAB
M  END
