
  Chem3D Core 14.010291515023D

  0  0  0     0  0              0 V3000
M  V30 BEGIN CTAB
M  V30 COUNTS 30 31 0 0 0
M  V30 BEGIN ATOM
M  V30 1 S 1.056323 1.323055 1.077328 0
M  V30 2 O 3.342445 3.401824 -0.167170 0
M  V30 3 O -1.757703 1.945532 1.152461 0
M  V30 4 O 5.063574 2.248734 -1.090746 0
M  V30 5 C 3.627341 1.174805 0.560014 0
M  V30 6 C 2.177799 0.869463 0.244922 0
M  V30 7 C -0.064889 0.839680 0.249255 0
M  V30 8 C 1.743039 0.194787 -0.825595 0
M  V30 9 C 4.500440 -0.087641 0.466054 0
M  V30 10 C 0.408120 0.143758 -0.797804 0
M  V30 11 C -1.380352 0.903412 0.640652 0
M  V30 12 C 4.120163 2.308952 -0.333045 0
M  V30 13 C -2.258096 -0.138147 0.468756 0
M  V30 14 C -1.884233 -1.392090 0.138388 0
M  V30 15 C -3.577911 0.054425 0.686086 0
M  V30 16 C -2.775709 -2.384998 -0.014302 0
M  V30 17 C -4.478697 -0.929795 0.534742 0
M  V30 18 C -4.082083 -2.157517 0.175013 0
M  V30 19 H 2.628737 3.235781 0.469415 0
M  V30 20 H 3.731541 1.552465 1.608917 0
M  V30 21 H 2.373561 -0.245999 -1.608917 0
M  V30 22 H 5.550417 0.125699 0.772473 0
M  V30 23 H 4.114919 -0.888159 1.138687 0
M  V30 24 H 4.533739 -0.499912 -0.567300 0
M  V30 25 H -0.183230 -0.356478 -1.577783 0
M  V30 26 H -0.832753 -1.694216 0.028143 0
M  V30 27 H -3.989825 1.034204 0.980979 0
M  V30 28 H -2.434361 -3.401824 -0.273949 0
M  V30 29 H -5.550417 -0.732921 0.708549 0
M  V30 30 H -4.815965 -2.971942 0.058006 0
M  V30 END ATOM
M  V30 BEGIN BOND
M  V30 1 1 6 1
M  V30 2 1 7 1
M  V30 3 1 2 12
M  V30 4 1 2 19
M  V30 5 2 3 11
M  V30 6 2 4 12
M  V30 7 1 5 6
M  V30 8 1 5 9
M  V30 9 1 5 12
M  V30 10 1 5 20
M  V30 11 2 6 8
M  V30 12 2 10 7
M  V30 13 1 7 11
M  V30 14 1 8 10
M  V30 15 1 8 21
M  V30 16 1 9 22
M  V30 17 1 9 23
M  V30 18 1 9 24
M  V30 19 1 10 25
M  V30 20 1 11 13
M  V30 21 1 13 14
M  V30 22 2 13 15
M  V30 23 2 14 16
M  V30 24 1 14 26
M  V30 25 1 17 15
M  V30 26 1 15 27
M  V30 27 1 16 18
M  V30 28 1 16 28
M  V30 29 2 18 17
M  V30 30 1 17 29
M  V30 31 1 18 30
M  V30 END BOND
M  V30 END CTAB
M  END
