
  Chem3D Core 15.010021516463D

 64 68  0  0  0  0  0  0  0  0999 V2000
   -1.7473   -5.5805   -1.0041 O   0  0  0  0  0  0  0  0  0  0  0  0
   -2.3722   -4.3459   -0.7390 C   0  0  0  0  0  0  0  0  0  0  0  0
   -3.2373   -4.5426   -0.0662 H   0  0  0  0  0  0  0  0  0  0  0  0
   -1.3790   -3.4174   -0.0535 C   0  0  0  0  0  0  0  0  0  0  0  0
   -0.3083   -4.1560    0.4756 O   0  0  0  0  0  0  0  0  0  0  0  0
   -0.9211   -2.4371   -1.1305 C   0  0  0  0  0  0  0  0  0  0  0  0
   -0.3379   -1.1956   -0.6010 N   0  0  0  0  0  0  0  0  0  0  0  0
   -0.8127   -0.0590   -0.5796 N   0  0  0  0  0  0  0  0  0  0  0  0
   -0.0090    0.7595   -0.0657 N   0  0  0  0  0  0  0  0  0  0  0  0
    1.0079    0.0671    0.2370 C   0  0  0  0  0  0  0  0  0  0  0  0
    2.1686    0.4219    0.8105 C   0  0  0  0  0  0  0  0  0  0  0  0
    2.3277    1.6435    1.1233 N   0  0  0  0  0  0  0  0  0  0  0  0
    3.5702    2.1759    1.6416 C   0  0  0  0  0  0  0  0  0  0  0  0
    4.3305    2.1733    0.8666 H   0  0  0  0  0  0  0  0  0  0  0  0
    3.3149    3.2578    2.6568 C   0  0  0  0  0  0  0  0  0  0  0  0
    2.2938    3.5868    2.8713 H   0  0  0  0  0  0  0  0  0  0  0  0
    4.4059    4.2805    2.7145 C   0  0  0  0  0  0  0  0  0  0  0  0
    5.6992    4.0515    2.4134 C   0  0  0  0  0  0  0  0  0  0  0  0
    6.6165    5.0285    2.4890 C   0  0  0  0  0  0  0  0  0  0  0  0
    6.2681    6.2669    2.8676 C   0  0  0  0  0  0  0  0  0  0  0  0
    7.1838    7.2214    2.9372 F   0  0  0  0  0  0  0  0  0  0  0  0
    4.9825    6.5184    3.1714 C   0  0  0  0  0  0  0  0  0  0  0  0
    4.6041    7.7310    3.5481 F   0  0  0  0  0  0  0  0  0  0  0  0
    4.0763    5.5311    3.0912 C   0  0  0  0  0  0  0  0  0  0  0  0
    3.7575    1.8835    3.1068 C   0  0  0  0  0  0  0  0  0  0  0  0
    3.0233   -0.4980    0.9990 N   0  0  0  0  0  0  0  0  0  0  0  0
    2.7939   -1.7007    0.6609 C   0  0  0  0  0  0  0  0  0  0  0  0
    4.1170   -2.9099    1.0029 S   0  0  0  0  0  0  0  0  0  0  0  0
    3.3536   -4.4102    0.3092 C   0  0  0  0  0  0  0  0  0  0  0  0
    4.3346   -5.5851    0.4559 C   0  0  0  0  0  0  0  0  0  0  0  0
    3.7409   -6.8823   -0.1124 C   0  0  0  0  0  0  0  0  0  0  0  0
    1.7151   -2.0805    0.1146 N   0  0  0  0  0  0  0  0  0  0  0  0
    0.8235   -1.2166   -0.0998 C   0  0  0  0  0  0  0  0  0  0  0  0
   -2.2225   -2.2468   -1.9255 C   0  0  0  0  0  0  0  0  0  0  0  0
   -2.7620   -3.6740   -2.0551 C   0  0  0  0  0  0  0  0  0  0  0  0
   -4.1437   -3.6481   -2.2702 O   0  0  0  0  0  0  0  0  0  0  0  0
   -4.6691   -4.8997   -2.6383 C   0  0  0  0  0  0  0  0  0  0  0  0
   -6.1702   -4.7582   -2.8128 C   0  0  0  0  0  0  0  0  0  0  0  0
   -6.7200   -6.0031   -3.1940 O   0  0  0  0  0  0  0  0  0  0  0  0
   -1.1117   -5.7567   -0.3042 H   0  0  0  0  0  0  0  0  0  0  0  0
   -1.8638   -2.8664    0.7851 H   0  0  0  0  0  0  0  0  0  0  0  0
    0.3203   -3.5694    0.9007 H   0  0  0  0  0  0  0  0  0  0  0  0
   -0.1696   -2.9244   -1.7993 H   0  0  0  0  0  0  0  0  0  0  0  0
    1.5375    2.3030    0.9154 H   0  0  0  0  0  0  0  0  0  0  0  0
    6.0542    3.0589    2.0947 H   0  0  0  0  0  0  0  0  0  0  0  0
    7.6689    4.8140    2.2370 H   0  0  0  0  0  0  0  0  0  0  0  0
    3.0302    5.7704    3.3465 H   0  0  0  0  0  0  0  0  0  0  0  0
    4.7696    1.7233    3.4684 H   0  0  0  0  0  0  0  0  0  0  0  0
    3.0102    1.2714    3.6103 H   0  0  0  0  0  0  0  0  0  0  0  0
    2.4102   -4.6574    0.8500 H   0  0  0  0  0  0  0  0  0  0  0  0
    3.1122   -4.2710   -0.7708 H   0  0  0  0  0  0  0  0  0  0  0  0
    5.2874   -5.3610   -0.0821 H   0  0  0  0  0  0  0  0  0  0  0  0
    4.5841   -5.7468    1.5327 H   0  0  0  0  0  0  0  0  0  0  0  0
    4.4548   -7.7310   -0.0031 H   0  0  0  0  0  0  0  0  0  0  0  0
    2.8008   -7.1602    0.4169 H   0  0  0  0  0  0  0  0  0  0  0  0
    3.5053   -6.7757   -1.1961 H   0  0  0  0  0  0  0  0  0  0  0  0
   -2.0562   -1.7531   -2.9098 H   0  0  0  0  0  0  0  0  0  0  0  0
   -2.9401   -1.6278   -1.3362 H   0  0  0  0  0  0  0  0  0  0  0  0
   -2.2531   -4.1491   -2.9272 H   0  0  0  0  0  0  0  0  0  0  0  0
   -4.2076   -5.2280   -3.5982 H   0  0  0  0  0  0  0  0  0  0  0  0
   -4.4504   -5.6519   -1.8471 H   0  0  0  0  0  0  0  0  0  0  0  0
   -6.6644   -4.4505   -1.8640 H   0  0  0  0  0  0  0  0  0  0  0  0
   -6.4216   -4.0235   -3.6103 H   0  0  0  0  0  0  0  0  0  0  0  0
   -7.6689   -5.9105   -3.3085 H   0  0  0  0  0  0  0  0  0  0  0  0
  1  2  1  0      
  1 40  1  0      
  2  3  1  0      
  2  4  1  0      
  2 35  1  0      
  4  5  1  0      
  4  6  1  0      
  4 41  1  0      
  5 42  1  0      
  6  7  1  0      
  6 34  1  0      
  6 43  1  0      
  8  7  1  0      
 33  7  1  0      
  8  9  2  0      
  9 10  1  0      
 10 11  1  0      
 10 33  2  0      
 11 12  1  0      
 11 26  2  0      
 12 13  1  0      
 12 44  1  0      
 13 14  1  0      
 13 15  1  0      
 13 25  1  0      
 15 16  1  0      
 15 17  1  0      
 15 25  1  0      
 17 18  1  0      
 17 24  2  0      
 18 19  2  0      
 18 45  1  0      
 19 20  1  0      
 19 46  1  0      
 20 21  1  0      
 20 22  2  0      
 22 23  1  0      
 22 24  1  0      
 24 47  1  0      
 25 48  1  0      
 25 49  1  0      
 26 27  1  0      
 27 28  1  0      
 27 32  2  0      
 28 29  1  0      
 29 30  1  0      
 29 50  1  0      
 29 51  1  0      
 30 31  1  0      
 30 52  1  0      
 30 53  1  0      
 31 54  1  0      
 31 55  1  0      
 31 56  1  0      
 32 33  1  0      
 34 35  1  0      
 34 57  1  0      
 34 58  1  0      
 35 36  1  0      
 35 59  1  0      
 36 37  1  0      
 37 38  1  0      
 37 60  1  0      
 37 61  1  0      
 38 39  1  0      
 38 62  1  0      
 38 63  1  0      
 39 64  1  0      
M  END
