
  Chem3D Core 14.010291512443D

  0  0  0     0  0              0 V3000
M  V30 BEGIN CTAB
M  V30 COUNTS 36 38 0 0 0
M  V30 BEGIN ATOM
M  V30 1 Cl -0.320812 -1.569983 2.676206 0
M  V30 2 Cl -4.307025 -4.969813 2.093941 0
M  V30 3 Cl 1.581135 -3.271417 -3.070980 0
M  V30 4 S 3.833032 -2.087544 -1.932957 0
M  V30 5 O -0.089115 -0.230875 -0.066251 0
M  V30 6 N -1.215906 2.365152 0.437594 0
M  V30 7 N 0.120621 3.874637 -0.036317 0
M  V30 8 C -1.477436 -0.084040 0.138181 0
M  V30 9 C -1.736840 1.130245 1.042340 0
M  V30 10 C -2.151928 -1.339994 0.690238 0
M  V30 11 C 0.240064 -1.185863 -1.056465 0
M  V30 12 C -1.721782 -2.030206 1.768463 0
M  V30 13 C -3.257404 -1.792133 0.065490 0
M  V30 14 C -1.885131 3.132614 -0.312551 0
M  V30 15 C 1.733886 -1.328285 -1.198698 0
M  V30 16 C -0.037700 2.794983 0.606287 0
M  V30 17 C -2.375307 -3.128033 2.189816 0
M  V30 18 C -3.915438 -2.885469 0.478676 0
M  V30 19 C -3.471567 -3.559948 1.548330 0
M  V30 20 C -0.994516 4.094350 -0.600918 0
M  V30 21 C 2.658958 -0.631914 -0.525972 0
M  V30 22 C 2.375688 -2.175219 -2.016011 0
M  V30 23 C 3.875161 -1.034032 -0.914451 0
M  V30 24 H -1.919501 0.176858 -0.854634 0
M  V30 25 H -1.284265 0.987419 2.049245 0
M  V30 26 H -2.834474 1.232677 1.216879 0
M  V30 27 H -0.183667 -2.175300 -0.772391 0
M  V30 28 H -0.183709 -0.858967 -2.033452 0
M  V30 29 H -3.650676 -1.259226 -0.816550 0
M  V30 30 H -2.926494 2.984749 -0.612118 0
M  V30 31 H 0.716510 2.288826 1.219174 0
M  V30 32 H -2.013967 -3.685615 3.070980 0
M  V30 33 H -4.815411 -3.217557 -0.065773 0
M  V30 34 H -1.173922 4.969813 -1.238673 0
M  V30 35 H 2.463937 0.144765 0.225565 0
M  V30 36 H 4.815411 -0.625556 -0.518919 0
M  V30 END ATOM
M  V30 BEGIN BOND
M  V30 1 1 1 12
M  V30 2 1 2 19
M  V30 3 1 3 22
M  V30 4 1 22 4
M  V30 5 1 23 4
M  V30 6 1 5 8
M  V30 7 1 5 11
M  V30 8 1 6 9
M  V30 9 1 14 6
M  V30 10 1 6 16
M  V30 11 2 16 7
M  V30 12 1 20 7
M  V30 13 1 8 9
M  V30 14 1 8 10
M  V30 15 1 8 24
M  V30 16 1 9 25
M  V30 17 1 9 26
M  V30 18 1 10 12
M  V30 19 2 10 13
M  V30 20 1 11 15
M  V30 21 1 11 27
M  V30 22 1 11 28
M  V30 23 2 12 17
M  V30 24 1 18 13
M  V30 25 1 13 29
M  V30 26 2 20 14
M  V30 27 1 14 30
M  V30 28 1 15 21
M  V30 29 2 22 15
M  V30 30 1 16 31
M  V30 31 1 17 19
M  V30 32 1 17 32
M  V30 33 2 19 18
M  V30 34 1 18 33
M  V30 35 1 20 34
M  V30 36 2 21 23
M  V30 37 1 21 35
M  V30 38 1 23 36
M  V30 END BOND
M  V30 END CTAB
M  END
