
  Chem3D Core 15.010021516473D

 75 78  0  0  0  0  0  0  0  0999 V2000
    5.8951   -0.6616   -0.9486 O   0  0  0  0  0  0  0  0  0  0  0  0
    4.7205    0.1820   -1.2004 S   0  0  0  0  0  0  0  0  0  0  0  0
    5.0495    1.9309   -1.3924 C   0  0  0  0  0  0  0  0  0  0  0  0
    4.2914    2.7448   -0.7892 N   0  0  0  0  0  0  0  0  0  0  0  0
    4.4898    3.9882   -0.9154 C   0  0  0  0  0  0  0  0  0  0  0  0
    5.4558    4.5390   -1.6730 C   0  0  0  0  0  0  0  0  0  0  0  0
    5.6739    6.0329   -1.7361 C   0  0  0  0  0  0  0  0  0  0  0  0
    6.9436    6.3519   -1.9324 F   0  0  0  0  0  0  0  0  0  0  0  0
    4.9802    6.5308   -2.7483 F   0  0  0  0  0  0  0  0  0  0  0  0
    5.2649    6.6474   -0.6374 F   0  0  0  0  0  0  0  0  0  0  0  0
    6.2818    3.6756   -2.2887 C   0  0  0  0  0  0  0  0  0  0  0  0
    6.0682    2.3577   -2.1571 C   0  0  0  0  0  0  0  0  0  0  0  0
    4.5660   -0.5023   -2.7572 N   0  0  0  0  0  0  0  0  0  0  0  0
    3.3965   -0.4299   -3.2614 C   0  0  0  0  0  0  0  0  0  0  0  0
    2.6581   -1.5482   -3.3667 C   0  0  0  0  0  0  0  0  0  0  0  0
    1.3770   -1.5056   -3.7728 C   0  0  0  0  0  0  0  0  0  0  0  0
    0.4522   -2.7118   -3.7035 C   0  0  0  0  0  0  0  0  0  0  0  0
   -0.4801   -2.4632   -2.5164 C   0  0  0  0  0  0  0  0  0  0  0  0
    0.0280   -2.2444   -1.2881 C   0  0  0  0  0  0  0  0  0  0  0  0
    1.3556   -2.2881   -0.9925 O   0  0  0  0  0  0  0  0  0  0  0  0
   -0.8689   -1.8033   -0.1670 C   0  0  0  0  0  0  0  0  0  0  0  0
   -2.2763   -2.3833   -0.3022 C   0  0  0  0  0  0  0  0  0  0  0  0
   -2.2400   -3.8879    0.0457 C   0  0  0  0  0  0  0  0  0  0  0  0
   -3.5918   -4.6205   -0.0147 C   0  0  0  0  0  0  0  0  0  0  0  0
   -3.4289   -6.1268    0.2347 C   0  0  0  0  0  0  0  0  0  0  0  0
   -3.2693   -1.5922    0.5708 C   0  0  0  0  0  0  0  0  0  0  0  0
   -3.0268   -1.6553    2.0874 C   0  0  0  0  0  0  0  0  0  0  0  0
   -4.0758   -0.8511    2.8279 C   0  0  0  0  0  0  0  0  0  0  0  0
   -5.2393   -1.4168    3.1969 C   0  0  0  0  0  0  0  0  0  0  0  0
   -6.1737   -0.7093    3.8508 C   0  0  0  0  0  0  0  0  0  0  0  0
   -5.9546    0.5813    4.1442 C   0  0  0  0  0  0  0  0  0  0  0  0
   -4.7995    1.1580    3.7795 C   0  0  0  0  0  0  0  0  0  0  0  0
   -3.8695    0.4444    3.1258 C   0  0  0  0  0  0  0  0  0  0  0  0
   -2.7147   -2.2622   -1.6177 O   0  0  0  0  0  0  0  0  0  0  0  0
   -1.8359   -2.3990   -2.6584 C   0  0  0  0  0  0  0  0  0  0  0  0
   -2.3194   -2.4802   -3.7732 O   0  0  0  0  0  0  0  0  0  0  0  0
    1.1006   -4.1074   -3.6320 C   0  0  0  0  0  0  0  0  0  0  0  0
    0.0592   -5.2329   -3.7328 C   0  0  0  0  0  0  0  0  0  0  0  0
    0.8756   -0.3197   -4.1646 C   0  0  0  0  0  0  0  0  0  0  0  0
    1.6231    0.7928   -4.1380 C   0  0  0  0  0  0  0  0  0  0  0  0
    2.8776    0.7415   -3.6686 C   0  0  0  0  0  0  0  0  0  0  0  0
    3.4059   -0.2369   -0.7008 O   0  0  0  0  0  0  0  0  0  0  0  0
    3.7939    4.6317   -0.3517 H   0  0  0  0  0  0  0  0  0  0  0  0
    7.1226    4.0348   -2.9033 H   0  0  0  0  0  0  0  0  0  0  0  0
    6.7321    1.6431   -2.6708 H   0  0  0  0  0  0  0  0  0  0  0  0
    4.7681   -1.5312   -2.6445 H   0  0  0  0  0  0  0  0  0  0  0  0
    3.0890   -2.5041   -3.0303 H   0  0  0  0  0  0  0  0  0  0  0  0
   -0.0890   -2.6996   -4.6804 H   0  0  0  0  0  0  0  0  0  0  0  0
    1.6934   -1.4442   -0.6487 H   0  0  0  0  0  0  0  0  0  0  0  0
   -0.8831   -0.6886   -0.1813 H   0  0  0  0  0  0  0  0  0  0  0  0
   -0.4212   -2.1137    0.8048 H   0  0  0  0  0  0  0  0  0  0  0  0
   -1.5391   -4.4044   -0.6518 H   0  0  0  0  0  0  0  0  0  0  0  0
   -1.8062   -4.0326    1.0621 H   0  0  0  0  0  0  0  0  0  0  0  0
   -4.2892   -4.2103    0.7530 H   0  0  0  0  0  0  0  0  0  0  0  0
   -4.0673   -4.4725   -1.0129 H   0  0  0  0  0  0  0  0  0  0  0  0
   -4.4135   -6.6474    0.1977 H   0  0  0  0  0  0  0  0  0  0  0  0
   -2.7717   -6.5937   -0.5343 H   0  0  0  0  0  0  0  0  0  0  0  0
   -2.9800   -6.3220    1.2354 H   0  0  0  0  0  0  0  0  0  0  0  0
   -3.2483   -0.5208    0.2566 H   0  0  0  0  0  0  0  0  0  0  0  0
   -4.3061   -1.9425    0.3562 H   0  0  0  0  0  0  0  0  0  0  0  0
   -3.0550   -2.7074    2.4511 H   0  0  0  0  0  0  0  0  0  0  0  0
   -2.0132   -1.2672    2.3379 H   0  0  0  0  0  0  0  0  0  0  0  0
   -5.4348   -2.4757    2.9586 H   0  0  0  0  0  0  0  0  0  0  0  0
   -7.1226   -1.1879    4.1455 H   0  0  0  0  0  0  0  0  0  0  0  0
   -6.7209    1.1655    4.6804 H   0  0  0  0  0  0  0  0  0  0  0  0
   -4.6156    2.2196    4.0157 H   0  0  0  0  0  0  0  0  0  0  0  0
   -2.9269    0.9333    2.8287 H   0  0  0  0  0  0  0  0  0  0  0  0
    1.8252   -4.2203   -4.4747 H   0  0  0  0  0  0  0  0  0  0  0  0
    1.6692   -4.2481   -2.6840 H   0  0  0  0  0  0  0  0  0  0  0  0
    0.5503   -6.2332   -3.7184 H   0  0  0  0  0  0  0  0  0  0  0  0
   -0.6586   -5.2032   -2.8820 H   0  0  0  0  0  0  0  0  0  0  0  0
   -0.5265   -5.1592   -4.6773 H   0  0  0  0  0  0  0  0  0  0  0  0
   -0.1754   -0.2462   -4.4910 H   0  0  0  0  0  0  0  0  0  0  0  0
    1.1916    1.7566   -4.4563 H   0  0  0  0  0  0  0  0  0  0  0  0
    3.4625    1.6744   -3.6123 H   0  0  0  0  0  0  0  0  0  0  0  0
  1  2  2  0      
  2  3  1  0      
  2 13  1  0      
  2 42  2  0      
  3  4  2  0      
 12  3  1  0      
  4  5  1  0      
  6  5  2  0      
  5 43  1  0      
  6  7  1  0      
  6 11  1  0      
  7  8  1  0      
  7  9  1  0      
  7 10  1  0      
 11 12  2  0      
 11 44  1  0      
 12 45  1  0      
 13 14  1  0      
 13 46  1  0      
 14 15  1  0      
 14 41  2  0      
 15 16  2  0      
 15 47  1  0      
 16 17  1  0      
 16 39  1  0      
 17 18  1  0      
 17 37  1  0      
 17 48  1  0      
 18 19  2  0      
 35 18  1  0      
 19 20  1  0      
 19 21  1  0      
 20 49  1  0      
 22 21  1  0      
 21 50  1  0      
 21 51  1  0      
 22 23  1  0      
 22 26  1  0      
 22 34  1  0      
 23 24  1  0      
 23 52  1  0      
 23 53  1  0      
 24 25  1  0      
 24 54  1  0      
 24 55  1  0      
 25 56  1  0      
 25 57  1  0      
 25 58  1  0      
 26 27  1  0      
 26 59  1  0      
 26 60  1  0      
 27 28  1  0      
 27 61  1  0      
 27 62  1  0      
 28 29  1  0      
 28 33  2  0      
 29 30  2  0      
 29 63  1  0      
 30 31  1  0      
 30 64  1  0      
 31 32  2  0      
 31 65  1  0      
 32 33  1  0      
 32 66  1  0      
 33 67  1  0      
 34 35  1  0      
 35 36  2  0      
 37 38  1  0      
 37 68  1  0      
 37 69  1  0      
 38 70  1  0      
 38 71  1  0      
 38 72  1  0      
 39 40  2  0      
 39 73  1  0      
 40 41  1  0      
 40 74  1  0      
 41 75  1  0      
M  END
