
  Chem3D Core 15.008161522063D

 47 52  0  0  0  0  0  0  0  0999 V2000
    0.7964   -1.1897   -3.6534 O   0  0  0  0  0  0  0  0  0  0  0  0
    0.7834   -1.3860   -2.4637 C   0  0  0  0  0  0  0  0  0  0  0  0
    0.3893   -0.3969   -1.3775 C   0  0  0  0  0  0  0  0  0  0  0  0
    1.1359    0.4302   -1.4244 H   0  0  0  0  0  0  0  0  0  0  0  0
   -0.9970    0.1500   -1.5699 C   0  0  0  0  0  0  0  0  0  0  0  0
   -1.3253    1.4562   -1.5727 C   0  0  0  0  0  0  0  0  0  0  0  0
   -2.5775    1.5018   -1.7578 N   0  0  0  0  0  0  0  0  0  0  0  0
   -3.3932    2.7222   -1.8368 C   0  0  0  0  0  0  0  0  0  0  0  0
   -4.8463    2.4151   -1.4239 C   0  0  0  0  0  0  0  0  0  0  0  0
   -5.3989    1.1880   -2.1746 C   0  0  0  0  0  0  0  0  0  0  0  0
   -4.4031    0.0611   -2.0776 C   0  0  0  0  0  0  0  0  0  0  0  0
   -3.1191    0.3677   -1.8777 C   0  0  0  0  0  0  0  0  0  0  0  0
   -2.1391   -0.5360   -1.7634 C   0  0  0  0  0  0  0  0  0  0  0  0
   -2.4406   -1.8378   -1.8512 C   0  0  0  0  0  0  0  0  0  0  0  0
   -3.7276   -2.1776   -2.0527 C   0  0  0  0  0  0  0  0  0  0  0  0
   -4.6966   -1.2481   -2.1638 C   0  0  0  0  0  0  0  0  0  0  0  0
    0.5414   -1.2181   -0.0681 C   0  0  0  0  0  0  0  0  0  0  0  0
   -0.4507   -1.4135    0.4026 H   0  0  0  0  0  0  0  0  0  0  0  0
    1.4622   -0.5753    0.9299 C   0  0  0  0  0  0  0  0  0  0  0  0
    1.1059   -0.0946    2.1320 C   0  0  0  0  0  0  0  0  0  0  0  0
    2.1350    0.3791    2.7042 N   0  0  0  0  0  0  0  0  0  0  0  0
    3.1601    0.2493    1.9699 C   0  0  0  0  0  0  0  0  0  0  0  0
    2.7823   -0.3505    0.8318 C   0  0  0  0  0  0  0  0  0  0  0  0
    3.6768   -0.6082   -0.1307 C   0  0  0  0  0  0  0  0  0  0  0  0
    4.9557   -0.2509    0.0810 C   0  0  0  0  0  0  0  0  0  0  0  0
    5.3283    0.3494    1.2262 C   0  0  0  0  0  0  0  0  0  0  0  0
    4.4292    0.6092    2.1909 C   0  0  0  0  0  0  0  0  0  0  0  0
    1.1479   -2.5810   -1.9143 N   0  0  0  0  0  0  0  0  0  0  0  0
    1.0501   -2.5669   -0.5533 C   0  0  0  0  0  0  0  0  0  0  0  0
    1.3362   -3.5205    0.1269 O   0  0  0  0  0  0  0  0  0  0  0  0
   -0.6956    2.3428   -1.4474 H   0  0  0  0  0  0  0  0  0  0  0  0
   -2.9751    3.5205   -1.1793 H   0  0  0  0  0  0  0  0  0  0  0  0
   -3.3735    3.0995   -2.8868 H   0  0  0  0  0  0  0  0  0  0  0  0
   -4.8662    2.2016   -0.3270 H   0  0  0  0  0  0  0  0  0  0  0  0
   -5.4986    3.3037   -1.5959 H   0  0  0  0  0  0  0  0  0  0  0  0
   -6.3837    0.8849   -1.7490 H   0  0  0  0  0  0  0  0  0  0  0  0
   -5.5448    1.4346   -3.2527 H   0  0  0  0  0  0  0  0  0  0  0  0
   -1.6656   -2.6136   -1.7600 H   0  0  0  0  0  0  0  0  0  0  0  0
   -3.9954   -3.2455   -2.1262 H   0  0  0  0  0  0  0  0  0  0  0  0
   -5.7411   -1.5608   -2.3257 H   0  0  0  0  0  0  0  0  0  0  0  0
    0.1213   -0.0736    2.6107 H   0  0  0  0  0  0  0  0  0  0  0  0
    2.1435    0.8176    3.6534 H   0  0  0  0  0  0  0  0  0  0  0  0
    3.3844   -1.0968   -1.0723 H   0  0  0  0  0  0  0  0  0  0  0  0
    5.7107   -0.4529   -0.6976 H   0  0  0  0  0  0  0  0  0  0  0  0
    6.3837    0.6334    1.3762 H   0  0  0  0  0  0  0  0  0  0  0  0
    4.7233    1.1013    3.1314 H   0  0  0  0  0  0  0  0  0  0  0  0
    1.4533   -3.3740   -2.4472 H   0  0  0  0  0  0  0  0  0  0  0  0
  1  2  2  0      
  2  3  1  0      
 28  2  1  0      
  3  4  1  0      
  3  5  1  0      
  3 17  1  0      
  5  6  2  0      
  5 13  1  0      
  6  7  1  0      
  6 31  1  0      
  7  8  1  0      
  7 12  1  0      
  8  9  1  0      
  8 32  1  0      
  8 33  1  0      
  9 10  1  0      
  9 34  1  0      
  9 35  1  0      
 10 11  1  0      
 10 36  1  0      
 10 37  1  0      
 11 12  2  0      
 11 16  1  0      
 13 12  1  0      
 14 13  2  0      
 15 14  1  0      
 14 38  1  0      
 16 15  2  0      
 15 39  1  0      
 16 40  1  0      
 17 18  1  0      
 17 19  1  0      
 17 29  1  0      
 20 19  2  0      
 19 23  1  0      
 21 20  1  0      
 20 41  1  0      
 22 21  1  0      
 21 42  1  0      
 22 23  2  0      
 27 22  1  0      
 23 24  1  0      
 25 24  2  0      
 24 43  1  0      
 25 26  1  0      
 25 44  1  0      
 26 27  2  0      
 26 45  1  0      
 27 46  1  0      
 28 29  1  0      
 28 47  1  0      
 29 30  2  0      
M  END
