
  Chem3D Core 14.010291512513D

  0  0  0     0  0              0 V3000
M  V30 BEGIN CTAB
M  V30 COUNTS 24 26 0 0 0
M  V30 BEGIN ATOM
M  V30 1 Cl 0.500363 -3.251697 -0.002632 0
M  V30 2 S -3.083324 1.876937 -1.393108 0
M  V30 3 N 0.969294 1.690880 -0.036211 0
M  V30 4 N 0.713146 -0.466657 -0.502353 0
M  V30 5 N 2.639207 0.591604 -0.691159 0
M  V30 6 N -1.533744 1.232939 -1.119303 0
M  V30 7 N -3.743348 0.336876 -1.109092 0
M  V30 8 C 2.022842 2.661983 0.288881 0
M  V30 9 C 3.177196 1.944644 -0.424759 0
M  V30 10 C 1.379020 0.611907 -0.560081 0
M  V30 11 C -0.514092 -0.802231 -0.556893 0
M  V30 12 C -1.565480 0.000186 -0.827582 0
M  V30 13 C -2.823806 -0.492060 -0.844215 0
M  V30 14 C -0.768337 -2.113365 -0.340015 0
M  V30 15 C -3.061237 -1.787273 -0.599228 0
M  V30 16 C -2.022459 -2.597214 -0.353394 0
M  V30 17 H -0.031990 1.860308 0.210923 0
M  V30 18 H 1.351381 -1.294744 -0.378851 0
M  V30 19 H 2.156076 2.712106 1.393593 0
M  V30 20 H 1.797019 3.665689 -0.135055 0
M  V30 21 H 3.435519 2.432944 -1.393593 0
M  V30 22 H 4.089031 1.890084 0.212943 0
M  V30 23 H -4.089031 -2.186281 -0.613194 0
M  V30 24 H -2.221815 -3.665689 -0.163061 0
M  V30 END ATOM
M  V30 BEGIN BOND
M  V30 1 1 1 14
M  V30 2 1 6 2
M  V30 3 1 2 7
M  V30 4 1 8 3
M  V30 5 1 10 3
M  V30 6 1 3 17
M  V30 7 1 4 10
M  V30 8 1 4 11
M  V30 9 1 4 18
M  V30 10 1 9 5
M  V30 11 2 5 10
M  V30 12 2 12 6
M  V30 13 2 7 13
M  V30 14 1 8 9
M  V30 15 1 8 19
M  V30 16 1 8 20
M  V30 17 1 9 21
M  V30 18 1 9 22
M  V30 19 1 11 12
M  V30 20 2 14 11
M  V30 21 1 12 13
M  V30 22 1 13 15
M  V30 23 1 16 14
M  V30 24 2 16 15
M  V30 25 1 15 23
M  V30 26 1 16 24
M  V30 END BOND
M  V30 END CTAB
M  END
