
  Chem3D Core 14.010291512533D

  0  0  0     0  0              0 V3000
M  V30 BEGIN CTAB
M  V30 COUNTS 54 56 0 0 0
M  V30 BEGIN ATOM
M  V30 1 O -3.185644 2.624203 2.457100 0
M  V30 2 O -3.246195 0.030621 1.983363 0
M  V30 3 O 3.479215 -4.043113 -0.367152 0
M  V30 4 O 1.223554 -4.749291 -1.985461 0
M  V30 5 N 3.057220 1.211340 1.945730 0
M  V30 6 N 2.575822 0.258355 1.293522 0
M  V30 7 C 1.512980 2.837968 1.139787 0
M  V30 8 C 0.276157 2.039570 1.449053 0
M  V30 9 C 1.408098 4.370117 0.998355 0
M  V30 10 C 0.284007 0.715399 1.203330 0
M  V30 11 C 2.570714 2.364414 2.086889 0
M  V30 12 C -0.847827 2.645032 1.868294 0
M  V30 13 C 1.392313 -0.020244 0.910798 0
M  V30 14 C -0.903530 0.099912 1.399106 0
M  V30 15 C 0.535332 4.821142 -0.185276 0
M  V30 16 C -2.021942 2.014409 2.044751 0
M  V30 17 C -2.053428 0.690737 1.780227 0
M  V30 18 C 3.292181 3.297702 3.022235 0
M  V30 19 C 1.336370 -1.193957 0.209363 0
M  V30 20 C 2.339002 -2.099004 0.168037 0
M  V30 21 C 0.307455 -1.525589 -0.594561 0
M  V30 22 C 2.353821 -3.258645 -0.525461 0
M  V30 23 C 0.270317 -2.672643 -1.286105 0
M  V30 24 C 1.259907 -3.584931 -1.256524 0
M  V30 25 C -3.202342 4.019822 2.650735 0
M  V30 26 C -3.306767 -1.368868 1.830147 0
M  V30 27 C 3.422655 -5.435931 -0.565141 0
M  V30 28 C 0.188233 -4.964421 -2.915967 0
M  V30 29 H 1.840324 2.518369 0.115319 0
M  V30 30 H 2.427226 4.785924 0.804099 0
M  V30 31 H 1.062164 4.843637 1.945342 0
M  V30 32 H -0.804860 3.722602 2.066466 0
M  V30 33 H -0.941811 -0.996307 1.341761 0
M  V30 34 H 0.502565 5.933248 -0.251138 0
M  V30 35 H -0.515444 4.466893 -0.107564 0
M  V30 36 H 0.941053 4.442082 -1.151142 0
M  V30 37 H 4.003592 2.757261 3.686879 0
M  V30 38 H 3.878587 4.058069 2.460459 0
M  V30 39 H 2.560120 3.817069 3.680815 0
M  V30 40 H 3.254279 -1.941270 0.764360 0
M  V30 41 H -0.534803 -0.838850 -0.783080 0
M  V30 42 H -0.620865 -2.829552 -1.914952 0
M  V30 43 H -4.235457 4.308088 2.948657 0
M  V30 44 H -2.514523 4.306143 3.477373 0
M  V30 45 H -2.956945 4.546301 1.701291 0
M  V30 46 H -4.353853 -1.686233 2.035379 0
M  V30 47 H -3.060394 -1.657313 0.783719 0
M  V30 48 H -2.645479 -1.870649 2.571368 0
M  V30 49 H 4.353853 -5.873852 -0.140098 0
M  V30 50 H 2.557295 -5.872724 -0.019061 0
M  V30 51 H 3.416878 -5.681485 -1.649184 0
M  V30 52 H 0.389389 -5.933248 -3.426117 0
M  V30 53 H -0.791509 -5.050817 -2.395550 0
M  V30 54 H 0.185693 -4.161782 -3.686879 0
M  V30 END ATOM
M  V30 BEGIN BOND
M  V30 1 1 1 16
M  V30 2 1 1 25
M  V30 3 1 2 17
M  V30 4 1 2 26
M  V30 5 1 3 22
M  V30 6 1 3 27
M  V30 7 1 4 24
M  V30 8 1 4 28
M  V30 9 1 6 5
M  V30 10 2 5 11
M  V30 11 2 13 6
M  V30 12 1 8 7
M  V30 13 1 7 9
M  V30 14 1 11 7
M  V30 15 1 7 29
M  V30 16 1 10 8
M  V30 17 2 8 12
M  V30 18 1 9 15
M  V30 19 1 9 30
M  V30 20 1 9 31
M  V30 21 1 10 13
M  V30 22 2 14 10
M  V30 23 1 11 18
M  V30 24 1 16 12
M  V30 25 1 12 32
M  V30 26 1 13 19
M  V30 27 1 17 14
M  V30 28 1 14 33
M  V30 29 1 15 34
M  V30 30 1 15 35
M  V30 31 1 15 36
M  V30 32 2 17 16
M  V30 33 1 18 37
M  V30 34 1 18 38
M  V30 35 1 18 39
M  V30 36 1 19 20
M  V30 37 2 19 21
M  V30 38 2 20 22
M  V30 39 1 20 40
M  V30 40 1 23 21
M  V30 41 1 21 41
M  V30 42 1 22 24
M  V30 43 2 24 23
M  V30 44 1 23 42
M  V30 45 1 25 43
M  V30 46 1 25 44
M  V30 47 1 25 45
M  V30 48 1 26 46
M  V30 49 1 26 47
M  V30 50 1 26 48
M  V30 51 1 27 49
M  V30 52 1 27 50
M  V30 53 1 27 51
M  V30 54 1 28 52
M  V30 55 1 28 53
M  V30 56 1 28 54
M  V30 END BOND
M  V30 END CTAB
M  END
