
  Chem3D Core 14.010291512563D

  0  0  0     0  0              0 V3000
M  V30 BEGIN CTAB
M  V30 COUNTS 42 43 0 0 0
M  V30 BEGIN ATOM
M  V30 1 S -0.372707 -2.240949 2.775235 0
M  V30 2 O -0.163646 -0.454254 0.361159 0
M  V30 3 O -1.005038 -3.560046 2.652407 0
M  V30 4 O -0.941006 -1.195358 3.631003 0
M  V30 5 N -2.271221 0.187145 -1.353501 0
M  V30 6 N -2.346930 -0.557385 -0.222637 0
M  V30 7 N -1.501352 -1.778184 1.579281 0
M  V30 8 C -4.095099 2.304380 -2.980549 0
M  V30 9 C -5.085528 1.407039 -2.226617 0
M  V30 10 C -2.743196 2.503247 -2.265183 0
M  V30 11 C -4.660422 -0.071416 -2.171483 0
M  V30 12 C -2.470850 1.595150 -1.052596 0
M  V30 13 C -3.160935 -0.354833 -2.364554 0
M  V30 14 C -1.267188 -0.896383 0.552651 0
M  V30 15 C 1.368183 -2.162135 2.387002 0
M  V30 16 C 2.203687 -1.423351 3.134990 0
M  V30 17 C 1.858150 -2.838080 1.334746 0
M  V30 18 C 4.008060 -2.035890 1.778625 0
M  V30 19 C 3.509329 -1.363071 2.830480 0
M  V30 20 C 3.164956 -2.774097 1.035659 0
M  V30 21 C 5.480811 -1.953222 1.454251 0
M  V30 22 H -3.242569 -0.934923 0.056531 0
M  V30 23 H -2.420671 -2.179697 1.666390 0
M  V30 24 H -3.941165 1.891474 -4.005336 0
M  V30 25 H -4.568503 3.303538 -3.143253 0
M  V30 26 H -6.088130 1.474405 -2.715538 0
M  V30 27 H -5.248390 1.813384 -1.201847 0
M  V30 28 H -2.697044 3.560046 -1.901553 0
M  V30 29 H -1.906868 2.402750 -2.997647 0
M  V30 30 H -5.198519 -0.614329 -2.988252 0
M  V30 31 H -5.014951 -0.528671 -1.217267 0
M  V30 32 H -3.271944 1.729784 -0.289987 0
M  V30 33 H -1.542998 1.970767 -0.552590 0
M  V30 34 H -2.831155 -0.004608 -3.370222 0
M  V30 35 H -3.016315 -1.462737 -2.415192 0
M  V30 36 H 1.829996 -0.858543 4.005336 0
M  V30 37 H 1.192710 -3.449626 0.702253 0
M  V30 38 H 4.182737 -0.751327 3.453841 0
M  V30 39 H 3.543470 -3.335966 0.165823 0
M  V30 40 H 5.765721 -0.901756 1.221972 0
M  V30 41 H 6.088130 -2.300389 2.321044 0
M  V30 42 H 5.762864 -2.578412 0.577878 0
M  V30 END ATOM
M  V30 BEGIN BOND
M  V30 1 2 1 3
M  V30 2 2 1 4
M  V30 3 1 1 7
M  V30 4 1 1 15
M  V30 5 2 2 14
M  V30 6 1 5 6
M  V30 7 1 5 12
M  V30 8 1 5 13
M  V30 9 1 6 14
M  V30 10 1 6 22
M  V30 11 1 7 14
M  V30 12 1 7 23
M  V30 13 1 8 9
M  V30 14 1 10 8
M  V30 15 1 8 24
M  V30 16 1 8 25
M  V30 17 1 9 11
M  V30 18 1 9 26
M  V30 19 1 9 27
M  V30 20 1 12 10
M  V30 21 1 10 28
M  V30 22 1 10 29
M  V30 23 1 11 13
M  V30 24 1 11 30
M  V30 25 1 11 31
M  V30 26 1 12 32
M  V30 27 1 12 33
M  V30 28 1 13 34
M  V30 29 1 13 35
M  V30 30 1 15 16
M  V30 31 2 15 17
M  V30 32 2 16 19
M  V30 33 1 16 36
M  V30 34 1 20 17
M  V30 35 1 17 37
M  V30 36 1 19 18
M  V30 37 2 18 20
M  V30 38 1 18 21
M  V30 39 1 19 38
M  V30 40 1 20 39
M  V30 41 1 21 40
M  V30 42 1 21 41
M  V30 43 1 21 42
M  V30 END BOND
M  V30 END CTAB
M  END
