
  Chem3D Core 14.010291512583D

  0  0  0     0  0              0 V3000
M  V30 BEGIN CTAB
M  V30 COUNTS 36 36 0 0 0
M  V30 BEGIN ATOM
M  V30 1 S 1.738087 -1.093096 1.386211 0
M  V30 2 O 3.027658 -1.375903 0.749399 0
M  V30 3 O 1.587724 -0.007524 2.363125 0
M  V30 4 O 0.134737 -0.940585 -1.160848 0
M  V30 5 N 0.650603 1.125213 -1.751784 0
M  V30 6 N 1.513886 0.145303 0.231758 0
M  V30 7 C 0.487075 3.281922 -0.562205 0
M  V30 8 C 1.312769 2.411506 -1.520565 0
M  V30 9 C 1.143833 4.650235 -0.321999 0
M  V30 10 C 0.535380 -2.409344 1.479555 0
M  V30 11 C 0.320946 5.516742 0.640521 0
M  V30 12 C 0.744130 0.062161 -0.903339 0
M  V30 13 C 0.901668 -3.686801 1.286031 0
M  V30 14 C -0.753111 -2.131738 1.738204 0
M  V30 15 C -1.302037 -4.400595 1.603822 0
M  V30 16 C -0.009695 -4.670189 1.348683 0
M  V30 17 C -1.659485 -3.119388 1.799997 0
M  V30 18 C -2.332015 -5.502593 1.681479 0
M  V30 19 H 0.009218 1.013441 -2.536085 0
M  V30 20 H 1.980390 1.014477 0.432052 0
M  V30 21 H -0.535911 3.427792 -0.983988 0
M  V30 22 H 0.372234 2.754141 0.414434 0
M  V30 23 H 2.346677 2.256730 -1.135674 0
M  V30 24 H 1.406351 2.925999 -2.505340 0
M  V30 25 H 2.167220 4.503708 0.099349 0
M  V30 26 H 1.257219 5.186607 -1.294400 0
M  V30 27 H 0.809307 6.504725 0.805759 0
M  V30 28 H -0.699926 5.706548 0.237015 0
M  V30 29 H 0.211990 5.022437 1.632933 0
M  V30 30 H 1.952745 -3.944410 1.073512 0
M  V30 31 H -1.082012 -1.091111 1.898280 0
M  V30 32 H 0.312960 -5.711881 1.185610 0
M  V30 33 H -2.713344 -2.872715 2.011181 0
M  V30 34 H -1.869054 -6.504725 1.824015 0
M  V30 35 H -3.027658 -5.341400 2.536085 0
M  V30 36 H -2.929374 -5.529507 0.741747 0
M  V30 END ATOM
M  V30 BEGIN BOND
M  V30 1 2 1 2
M  V30 2 2 1 3
M  V30 3 1 1 6
M  V30 4 1 1 10
M  V30 5 2 4 12
M  V30 6 1 5 8
M  V30 7 1 5 12
M  V30 8 1 5 19
M  V30 9 1 6 12
M  V30 10 1 6 20
M  V30 11 1 7 8
M  V30 12 1 7 9
M  V30 13 1 7 21
M  V30 14 1 7 22
M  V30 15 1 8 23
M  V30 16 1 8 24
M  V30 17 1 9 11
M  V30 18 1 9 25
M  V30 19 1 9 26
M  V30 20 1 10 13
M  V30 21 2 10 14
M  V30 22 1 11 27
M  V30 23 1 11 28
M  V30 24 1 11 29
M  V30 25 2 13 16
M  V30 26 1 13 30
M  V30 27 1 17 14
M  V30 28 1 14 31
M  V30 29 1 16 15
M  V30 30 2 15 17
M  V30 31 1 15 18
M  V30 32 1 16 32
M  V30 33 1 17 33
M  V30 34 1 18 34
M  V30 35 1 18 35
M  V30 36 1 18 36
M  V30 END BOND
M  V30 END CTAB
M  END
