
  Chem3D Core 15.001121613433D

  0  0  0     0  0              0 V3000
M  V30 BEGIN CTAB
M  V30 COUNTS 31 32 0 0 0
M  V30 BEGIN ATOM
M  V30 1 O -1.196859 2.947062 0.091695 0
M  V30 2 O -5.151664 0.227245 -0.203236 0
M  V30 3 O -4.398351 -2.204668 0.433717 0
M  V30 4 O -2.504190 -3.737607 1.150067 0 CHG=-1
M  V30 5 O -0.494992 -2.924176 1.229339 0
M  V30 6 N -1.760251 -2.668644 0.978094 0 CHG=1
M  V30 7 C -1.606877 0.766887 0.150915 0
M  V30 8 C 0.635647 1.699423 -0.091812 0
M  V30 9 C -0.726230 1.821696 0.050582 0
M  V30 10 C -1.272675 -0.489195 0.516965 0
M  V30 11 C -2.923355 0.977954 -0.054263 0
M  V30 12 C -2.145719 -1.516869 0.623832 0
M  V30 13 C -3.830489 -0.006222 0.018713 0
M  V30 14 C 3.379022 1.572096 -0.376765 0
M  V30 15 C 1.262247 0.588925 -0.532542 0
M  V30 16 C 1.434761 2.764481 0.138743 0
M  V30 17 C -3.443944 -1.243105 0.373737 0
M  V30 18 C 2.597049 0.519987 -0.663532 0
M  V30 19 C 2.769954 2.702485 0.012869 0
M  V30 20 C 4.879179 1.512023 -0.536279 0
M  V30 21 H -5.356488 1.174798 -0.210586 0
M  V30 22 H -5.224887 -1.933064 0.003669 0
M  V30 23 H -0.240329 -0.687425 0.835163 0
M  V30 24 H -3.331674 1.964002 -0.331279 0
M  V30 25 H 0.721089 -0.300117 -0.889332 0
M  V30 26 H 1.037455 3.737607 0.473968 0
M  V30 27 H 3.056408 -0.408081 -1.044034 0
M  V30 28 H 3.378739 3.595365 0.234844 0
M  V30 29 H 5.195627 0.700501 -1.229339 0
M  V30 30 H 5.281350 2.465404 -0.947780 0
M  V30 31 H 5.356488 1.327733 0.453071 0
M  V30 END ATOM
M  V30 BEGIN BOND
M  V30 1 2 1 9
M  V30 2 1 2 13
M  V30 3 1 2 21
M  V30 4 1 3 17
M  V30 5 1 3 22
M  V30 6 1 4 6
M  V30 7 2 5 6
M  V30 8 1 6 12
M  V30 9 1 7 9
M  V30 10 1 7 10
M  V30 11 2 7 11
M  V30 12 1 8 9
M  V30 13 1 8 15
M  V30 14 2 8 16
M  V30 15 2 10 12
M  V30 16 1 10 23
M  V30 17 1 13 11
M  V30 18 1 11 24
M  V30 19 1 12 17
M  V30 20 2 17 13
M  V30 21 1 18 14
M  V30 22 2 14 19
M  V30 23 1 14 20
M  V30 24 2 15 18
M  V30 25 1 15 25
M  V30 26 1 19 16
M  V30 27 1 16 26
M  V30 28 1 18 27
M  V30 29 1 19 28
M  V30 30 1 20 29
M  V30 31 1 20 30
M  V30 32 1 20 31
M  V30 END BOND
M  V30 END CTAB
M  END
