
  Chem3D Core 14.010291513013D

  0  0  0     0  0              0 V3000
M  V30 BEGIN CTAB
M  V30 COUNTS 30 31 0 0 0
M  V30 BEGIN ATOM
M  V30 1 C -1.116566 0.662645 1.092509 0
M  V30 2 C 3.284698 1.850199 -1.122374 0
M  V30 3 C 3.428578 0.546850 -1.383895 0
M  V30 4 C -2.660881 -2.565360 -1.131801 0
M  V30 5 C 2.050154 2.363273 -1.029504 0
M  V30 6 C -3.423793 -1.923603 -0.240305 0
M  V30 7 C 2.339413 -0.230764 -1.451317 0
M  V30 8 C -1.430763 -2.105211 -1.394713 0
M  V30 9 C -1.678400 -0.399042 0.158441 0
M  V30 10 C 0.945414 1.594076 -1.142559 0
M  V30 11 C -2.923489 -0.861452 0.408572 0
M  V30 12 C -0.940350 -0.988274 -0.816001 0
M  V30 13 C 1.091317 0.250377 -1.255521 0
M  V30 14 C -0.259294 2.238420 -1.245018 0
M  V30 15 Cl -3.940259 -0.145358 1.615891 0
M  V30 16 N 0.230908 -0.692800 -1.231393 0
M  V30 17 O -0.387432 3.435580 -1.088994 0
M  V30 18 O -1.414165 1.628992 -1.608755 0
M  V30 19 H -1.255875 0.350160 2.152262 0
M  V30 20 H -0.016033 0.780238 1.025983 0
M  V30 21 H -1.610271 1.652660 0.975500 0
M  V30 22 H 4.172644 2.500954 -1.052133 0
M  V30 23 H 4.436253 0.115016 -1.505515 0
M  V30 24 H -3.046627 -3.460135 -1.648903 0
M  V30 25 H 2.006847 3.460135 -0.922387 0
M  V30 26 H -4.436253 -2.306475 -0.027570 0
M  V30 27 H 2.530934 -1.309164 -1.602189 0
M  V30 28 H -0.852967 -2.665416 -2.152262 0
M  V30 29 H 0.639943 -1.544878 -1.696467 0
M  V30 30 H -2.104375 2.305895 -1.689003 0
M  V30 END ATOM
M  V30 BEGIN BOND
M  V30 1 1 9 1
M  V30 2 1 1 19
M  V30 3 1 1 20
M  V30 4 1 1 21
M  V30 5 1 2 3
M  V30 6 2 2 5
M  V30 7 1 2 22
M  V30 8 2 3 7
M  V30 9 1 3 23
M  V30 10 1 4 6
M  V30 11 2 4 8
M  V30 12 1 4 24
M  V30 13 1 10 5
M  V30 14 1 5 25
M  V30 15 2 6 11
M  V30 16 1 6 26
M  V30 17 1 7 13
M  V30 18 1 7 27
M  V30 19 1 12 8
M  V30 20 1 8 28
M  V30 21 1 11 9
M  V30 22 2 9 12
M  V30 23 2 13 10
M  V30 24 1 14 10
M  V30 25 1 15 11
M  V30 26 1 16 12
M  V30 27 1 16 13
M  V30 28 2 17 14
M  V30 29 1 18 14
M  V30 30 1 16 29
M  V30 31 1 18 30
M  V30 END BOND
M  V30 END CTAB
M  END
