
  Chem3D Core 14.010291513023D

  0  0  0     0  0              0 V3000
M  V30 BEGIN CTAB
M  V30 COUNTS 34 35 0 0 0
M  V30 BEGIN ATOM
M  V30 1 O -1.569311 2.202043 -0.589495 0
M  V30 2 O 4.557314 1.927574 0.859609 0
M  V30 3 O 5.838930 0.809534 -0.645716 0
M  V30 4 N 1.102212 1.480137 -0.846381 0
M  V30 5 C 2.300072 1.103320 -0.633180 0
M  V30 6 C 0.199773 0.946889 -0.116471 0
M  V30 7 C 2.193631 0.209638 0.361324 0
M  V30 8 C 0.896016 0.114646 0.680766 0
M  V30 9 C 3.603180 1.535279 -1.256258 0
M  V30 10 C -1.154440 1.159816 -0.114228 0
M  V30 11 C 0.813874 2.432428 -1.941327 0
M  V30 12 C -2.068659 0.246579 0.353058 0
M  V30 13 C -1.799015 -1.053042 0.591280 0
M  V30 14 C -3.353154 0.619742 0.545544 0
M  V30 15 C -3.990958 -1.510528 1.267502 0
M  V30 16 C -2.729335 -1.909326 1.044274 0
M  V30 17 C -4.287970 -0.229615 1.000403 0
M  V30 18 C 4.804806 1.362798 -0.342626 0
M  V30 19 C -5.052520 -2.458175 1.771353 0
M  V30 20 H 3.633764 2.223921 0.911846 0
M  V30 21 H 3.011331 -0.335041 0.850019 0
M  V30 22 H 0.542585 -0.510821 1.509000 0
M  V30 23 H 3.756637 0.961042 -2.198708 0
M  V30 24 H 3.569805 2.620682 -1.508347 0
M  V30 25 H -0.068669 2.115952 -2.541389 0
M  V30 26 H 0.666437 3.461030 -1.539941 0
M  V30 27 H 1.634071 2.480880 -2.690168 0
M  V30 28 H -0.828019 -1.513329 0.363713 0
M  V30 29 H -3.701677 1.650810 0.365358 0
M  V30 30 H -2.457737 -2.966146 1.206799 0
M  V30 31 H -5.319727 0.127910 1.158359 0
M  V30 32 H -4.643642 -3.461030 2.027414 0
M  V30 33 H -5.532705 -2.051019 2.690168 0
M  V30 34 H -5.838930 -2.601072 0.995608 0
M  V30 END ATOM
M  V30 BEGIN BOND
M  V30 1 2 1 10
M  V30 2 1 2 18
M  V30 3 1 2 20
M  V30 4 2 3 18
M  V30 5 1 5 4
M  V30 6 1 6 4
M  V30 7 1 4 11
M  V30 8 2 5 7
M  V30 9 1 5 9
M  V30 10 2 8 6
M  V30 11 1 6 10
M  V30 12 1 7 8
M  V30 13 1 7 21
M  V30 14 1 8 22
M  V30 15 1 9 18
M  V30 16 1 9 23
M  V30 17 1 9 24
M  V30 18 1 10 12
M  V30 19 1 11 25
M  V30 20 1 11 26
M  V30 21 1 11 27
M  V30 22 1 12 13
M  V30 23 2 12 14
M  V30 24 2 13 16
M  V30 25 1 13 28
M  V30 26 1 17 14
M  V30 27 1 14 29
M  V30 28 1 16 15
M  V30 29 2 15 17
M  V30 30 1 15 19
M  V30 31 1 16 30
M  V30 32 1 17 31
M  V30 33 1 19 32
M  V30 34 1 19 33
M  V30 35 1 19 34
M  V30 END BOND
M  V30 END CTAB
M  END
