
  Chem3D Core 14.010291513053D

  0  0  0     0  0              0 V3000
M  V30 BEGIN CTAB
M  V30 COUNTS 39 41 0 0 0
M  V30 BEGIN ATOM
M  V30 1 S -1.835946 -1.480705 3.720249 0
M  V30 2 O 0.489303 -1.879477 2.672562 0
M  V30 3 N -1.372604 -2.038247 1.369211 0
M  V30 4 C 2.159918 0.976718 1.222052 0
M  V30 5 C 2.644977 0.451321 0.080127 0
M  V30 6 C -1.743176 -1.238166 0.440683 0
M  V30 7 C 1.217021 -1.103480 1.809751 0
M  V30 8 C 1.461576 0.195478 2.065416 0
M  V30 9 C -2.257837 -1.629641 -0.744246 0
M  V30 10 C -2.631947 -0.767518 -1.707506 0
M  V30 11 C 2.420870 -0.846927 -0.186281 0
M  V30 12 C 1.719843 -1.606712 0.667956 0
M  V30 13 C 2.378059 2.275704 1.497776 0
M  V30 14 C -1.624546 0.094436 0.619869 0
M  V30 15 C 3.340790 1.228921 -0.769167 0
M  V30 16 C -0.862229 -1.796211 2.509175 0
M  V30 17 C -2.489946 0.549032 -1.487182 0
M  V30 18 C -1.986783 0.977484 -0.322463 0
M  V30 19 C -1.508513 -3.509886 1.153576 0
M  V30 20 C 3.072257 3.047570 0.647698 0
M  V30 21 C 3.554724 2.523284 -0.488178 0
M  V30 22 C -3.197182 -1.283233 -3.011059 0
M  V30 23 H 1.057445 0.618462 3.001328 0
M  V30 24 H -2.397443 -2.693338 -0.990589 0
M  V30 25 H 2.804307 -1.308789 -1.112102 0
M  V30 26 H 1.544184 -2.668116 0.423923 0
M  V30 27 H 1.990084 2.730995 2.425013 0
M  V30 28 H -1.222030 0.519704 1.553758 0
M  V30 29 H 3.746488 0.818600 -1.709647 0
M  V30 30 H -2.784421 1.282616 -2.255115 0
M  V30 31 H -1.871377 2.059558 -0.140383 0
M  V30 32 H -0.896043 -3.847419 0.286001 0
M  V30 33 H -1.147374 -4.111435 2.019412 0
M  V30 34 H -2.575889 -3.798607 1.015017 0
M  V30 35 H 3.245917 4.111435 0.881216 0
M  V30 36 H 4.125395 3.155588 -1.188908 0
M  V30 37 H -2.457524 -1.942762 -3.519703 0
M  V30 38 H -4.125395 -1.870180 -2.824829 0
M  V30 39 H -3.456658 -0.465863 -3.720249 0
M  V30 END ATOM
M  V30 BEGIN BOND
M  V30 1 2 1 16
M  V30 2 1 2 7
M  V30 3 1 2 16
M  V30 4 1 3 6
M  V30 5 1 3 16
M  V30 6 1 3 19
M  V30 7 1 4 5
M  V30 8 1 8 4
M  V30 9 2 4 13
M  V30 10 1 5 11
M  V30 11 2 15 5
M  V30 12 1 6 9
M  V30 13 2 6 14
M  V30 14 2 7 8
M  V30 15 1 12 7
M  V30 16 1 8 23
M  V30 17 2 9 10
M  V30 18 1 9 24
M  V30 19 1 10 17
M  V30 20 1 10 22
M  V30 21 2 12 11
M  V30 22 1 11 25
M  V30 23 1 12 26
M  V30 24 1 13 20
M  V30 25 1 13 27
M  V30 26 1 18 14
M  V30 27 1 14 28
M  V30 28 1 21 15
M  V30 29 1 15 29
M  V30 30 2 17 18
M  V30 31 1 17 30
M  V30 32 1 18 31
M  V30 33 1 19 32
M  V30 34 1 19 33
M  V30 35 1 19 34
M  V30 36 2 20 21
M  V30 37 1 20 35
M  V30 38 1 21 36
M  V30 39 1 22 37
M  V30 40 1 22 38
M  V30 41 1 22 39
M  V30 END BOND
M  V30 END CTAB
M  END
