
  Chem3D Core 14.010291513073D

  0  0  0     0  0              0 V3000
M  V30 BEGIN CTAB
M  V30 COUNTS 55 56 0 0 0
M  V30 BEGIN ATOM
M  V30 1 C 3.932111 2.350713 1.487411 0
M  V30 2 C 4.595574 1.239698 1.834829 0
M  V30 3 C 3.950225 0.064996 1.903129 0
M  V30 4 C 2.637155 0.046586 1.617698 0
M  V30 5 C 1.955318 1.155030 1.273452 0
M  V30 6 C 2.618687 2.329049 1.204098 0
M  V30 7 C 0.468032 1.122645 0.939408 0
M  V30 8 C -0.323954 -0.110755 1.419711 0
M  V30 9 C -1.848050 0.050594 1.241988 0
M  V30 10 N -2.580386 -1.177525 1.570213 0
M  V30 11 C -3.812249 -0.836033 2.313377 0
M  V30 12 C -4.842077 -1.964713 2.535292 0
M  V30 13 C -3.474095 -0.303576 3.729296 0
M  V30 14 C -2.808910 -2.045921 0.398052 0
M  V30 15 C -2.734265 -3.535100 0.812982 0
M  V30 16 C -1.842221 -1.933782 -0.807590 0
M  V30 17 C 4.666713 -1.209422 2.282748 0
M  V30 18 O 1.993603 3.485856 0.850127 0
M  V30 19 C 0.300709 1.307440 -0.559694 0
M  V30 20 C -0.418992 2.329137 -1.059061 0
M  V30 21 C -0.573601 2.485400 -2.382925 0
M  V30 22 C -0.007993 1.615097 -3.232425 0
M  V30 23 C 0.711268 0.591186 -2.749657 0
M  V30 24 C 0.861753 0.442682 -1.424557 0
M  V30 25 H 4.479255 3.307067 1.431169 0
M  V30 26 H 5.673249 1.298354 2.058798 0
M  V30 27 H 2.128887 -0.927636 1.670016 0
M  V30 28 H 0.016669 1.989278 1.483831 0
M  V30 29 H -0.129409 -0.271575 2.508508 0
M  V30 30 H 0.033573 -1.025911 0.904825 0
M  V30 31 H -2.139619 0.439098 0.244189 0
M  V30 32 H -2.124020 0.905632 1.896505 0
M  V30 33 H -4.355339 -0.036968 1.745964 0
M  V30 34 H -5.749272 -1.573190 3.050699 0
M  V30 35 H -5.229143 -2.408787 1.592686 0
M  V30 36 H -4.438466 -2.767266 3.192204 0
M  V30 37 H -4.396691 -0.104814 4.320688 0
M  V30 38 H -2.910784 0.652472 3.751287 0
M  V30 39 H -2.870847 -1.052820 4.291544 0
M  V30 40 H -3.815122 -1.810088 -0.029011 0
M  V30 41 H -2.984630 -4.208246 -0.038398 0
M  V30 42 H -3.411010 -3.830190 1.637017 0
M  V30 43 H -1.705309 -3.790570 1.155680 0
M  V30 44 H -2.168674 -2.613358 -1.628526 0
M  V30 45 H -1.815231 -0.930932 -1.283899 0
M  V30 46 H -0.804495 -2.245213 -0.562464 0
M  V30 47 H 5.749272 -1.048837 2.484479 0
M  V30 48 H 4.215874 -1.646601 3.202724 0
M  V30 49 H 4.587188 -1.957042 1.460833 0
M  V30 50 H 2.641694 4.208246 0.835130 0
M  V30 51 H -0.896901 3.053295 -0.378811 0
M  V30 52 H -1.168409 3.328051 -2.773568 0
M  V30 53 H -0.135170 1.739415 -4.320688 0
M  V30 54 H 1.176724 -0.129933 -3.442266 0
M  V30 55 H 1.453463 -0.408071 -1.048975 0
M  V30 END ATOM
M  V30 BEGIN BOND
M  V30 1 1 1 2
M  V30 2 2 1 6
M  V30 3 1 1 25
M  V30 4 2 2 3
M  V30 5 1 2 26
M  V30 6 1 3 4
M  V30 7 1 3 17
M  V30 8 2 4 5
M  V30 9 1 4 27
M  V30 10 1 5 6
M  V30 11 1 5 7
M  V30 12 1 6 18
M  V30 13 1 7 8
M  V30 14 1 7 19
M  V30 15 1 7 28
M  V30 16 1 8 9
M  V30 17 1 8 29
M  V30 18 1 8 30
M  V30 19 1 9 10
M  V30 20 1 9 31
M  V30 21 1 9 32
M  V30 22 1 10 11
M  V30 23 1 10 14
M  V30 24 1 11 12
M  V30 25 1 11 13
M  V30 26 1 11 33
M  V30 27 1 12 34
M  V30 28 1 12 35
M  V30 29 1 12 36
M  V30 30 1 13 37
M  V30 31 1 13 38
M  V30 32 1 13 39
M  V30 33 1 14 15
M  V30 34 1 14 16
M  V30 35 1 14 40
M  V30 36 1 15 41
M  V30 37 1 15 42
M  V30 38 1 15 43
M  V30 39 1 16 44
M  V30 40 1 16 45
M  V30 41 1 16 46
M  V30 42 1 17 47
M  V30 43 1 17 48
M  V30 44 1 17 49
M  V30 45 1 18 50
M  V30 46 1 19 20
M  V30 47 2 19 24
M  V30 48 2 20 21
M  V30 49 1 20 51
M  V30 50 1 21 22
M  V30 51 1 21 52
M  V30 52 2 22 23
M  V30 53 1 22 53
M  V30 54 1 23 24
M  V30 55 1 23 54
M  V30 56 1 24 55
M  V30 END BOND
M  V30 END CTAB
M  END
