
  Chem3D Core 14.010291513123D

  0  0  0     0  0              0 V3000
M  V30 BEGIN CTAB
M  V30 COUNTS 57 60 0 0 0
M  V30 BEGIN ATOM
M  V30 1 Cl 1.939427 1.861572 6.115086 0
M  V30 2 O 3.110748 -3.486200 5.139361 0
M  V30 3 O 2.601943 -2.220976 -0.425839 0
M  V30 4 O -3.606962 3.161868 -0.713204 0
M  V30 5 N 2.396475 -2.001333 1.799769 0
M  V30 6 N -2.378008 1.452266 -0.199757 0
M  V30 7 C 1.268166 -3.956540 3.615320 0
M  V30 8 C 2.199939 -4.388658 2.481104 0
M  V30 9 C 1.898307 -2.986494 4.611022 0
M  V30 10 C 3.125481 -3.254144 2.047001 0
M  V30 11 C 2.087082 -1.549576 4.145409 0
M  V30 12 C 2.237666 -1.156727 2.856985 0
M  V30 13 C 1.978315 -1.755096 0.500570 0
M  V30 14 C 2.005416 -0.613109 5.112556 0
M  V30 15 C 2.275013 0.170186 2.606826 0
M  V30 16 C 0.920256 -0.915949 0.266292 0
M  V30 17 C 2.052585 0.698689 4.843649 0
M  V30 18 C 2.179697 1.095355 3.572191 0
M  V30 19 C 0.816290 -0.151946 -0.848014 0
M  V30 20 C -0.078178 -0.847989 1.169897 0
M  V30 21 C -0.265824 0.637448 -1.001518 0
M  V30 22 C -1.272100 0.684773 -0.114930 0
M  V30 23 C -1.146854 -0.058596 0.994395 0
M  V30 24 C 1.888602 -0.057422 -1.919722 0
M  V30 25 C -2.950900 2.246208 -1.146867 0
M  V30 26 C -2.689824 2.071033 -2.475122 0
M  V30 27 C -2.665945 3.096730 -3.359324 0
M  V30 28 C -2.498311 0.815893 -2.931161 0
M  V30 29 C -2.414638 2.826531 -4.655615 0
M  V30 30 C -2.845099 4.553539 -2.975521 0
M  V30 31 C -2.251991 0.562827 -4.224582 0
M  V30 32 C -2.205741 1.578065 -5.095343 0
M  V30 33 H 3.471755 -2.807781 5.716793 0
M  V30 34 H -2.866360 1.455013 0.683073 0
M  V30 35 H 0.917403 -4.874336 4.147463 0
M  V30 36 H 0.351651 -3.481166 3.191805 0
M  V30 37 H 2.827553 -5.249958 2.816137 0
M  V30 38 H 1.595552 -4.745966 1.613258 0
M  V30 39 H 1.190594 -2.967957 5.477998 0
M  V30 40 H 3.724343 -3.591554 1.171695 0
M  V30 41 H 3.921653 -3.072013 2.803726 0
M  V30 42 H 1.877829 -0.925744 6.162941 0
M  V30 43 H 2.439500 0.557188 1.587177 0
M  V30 44 H 2.231546 2.166717 3.315113 0
M  V30 45 H -0.082847 -1.467677 2.080763 0
M  V30 46 H -0.299437 1.295974 -1.881981 0
M  V30 47 H -1.937992 -0.046281 1.764219 0
M  V30 48 H 2.908786 0.013890 -1.480082 0
M  V30 49 H 1.827371 -0.922954 -2.617815 0
M  V30 50 H 1.791446 0.856547 -2.547065 0
M  V30 51 H -2.569968 -0.059709 -2.263678 0
M  V30 52 H -2.373482 3.645106 -5.393857 0
M  V30 53 H -2.258687 4.815065 -2.066168 0
M  V30 54 H -2.478915 5.249958 -3.762571 0
M  V30 55 H -3.921653 4.791324 -2.818791 0
M  V30 56 H -2.103135 -0.472738 -4.573714 0
M  V30 57 H -2.007023 1.386080 -6.162941 0
M  V30 END ATOM
M  V30 BEGIN BOND
M  V30 1 1 1 17
M  V30 2 1 9 2
M  V30 3 1 2 33
M  V30 4 2 3 13
M  V30 5 2 4 25
M  V30 6 1 5 10
M  V30 7 1 12 5
M  V30 8 1 5 13
M  V30 9 1 6 22
M  V30 10 1 6 25
M  V30 11 1 6 34
M  V30 12 1 8 7
M  V30 13 1 7 9
M  V30 14 1 7 35
M  V30 15 1 7 36
M  V30 16 1 8 10
M  V30 17 1 8 37
M  V30 18 1 8 38
M  V30 19 1 9 11
M  V30 20 1 9 39
M  V30 21 1 10 40
M  V30 22 1 10 41
M  V30 23 2 11 12
M  V30 24 1 11 14
M  V30 25 1 15 12
M  V30 26 1 13 16
M  V30 27 2 14 17
M  V30 28 1 14 42
M  V30 29 2 18 15
M  V30 30 1 15 43
M  V30 31 2 16 19
M  V30 32 1 16 20
M  V30 33 1 17 18
M  V30 34 1 18 44
M  V30 35 1 19 21
M  V30 36 1 19 24
M  V30 37 2 20 23
M  V30 38 1 20 45
M  V30 39 2 21 22
M  V30 40 1 21 46
M  V30 41 1 22 23
M  V30 42 1 23 47
M  V30 43 1 24 48
M  V30 44 1 24 49
M  V30 45 1 24 50
M  V30 46 1 25 26
M  V30 47 1 26 27
M  V30 48 2 26 28
M  V30 49 2 27 29
M  V30 50 1 27 30
M  V30 51 1 31 28
M  V30 52 1 28 51
M  V30 53 1 29 32
M  V30 54 1 29 52
M  V30 55 1 30 53
M  V30 56 1 30 54
M  V30 57 1 30 55
M  V30 58 2 32 31
M  V30 59 1 31 56
M  V30 60 1 32 57
M  V30 END BOND
M  V30 END CTAB
M  END
