
  Chem3D Core 15.003181609423D

 66 68  0  0  0  0  0  0  0  0999 V2000
   -4.9570   -2.7226    0.9238 F   0  0  0  0  0  0  0  0  0  0  0  0
   -5.0434   -2.1708    2.9878 F   0  0  0  0  0  0  0  0  0  0  0  0
   -4.3532   -4.1110    2.4252 F   0  0  0  0  0  0  0  0  0  0  0  0
    0.5077    4.1110   -2.0037 F   0  0  0  0  0  0  0  0  0  0  0  0
    1.8841    2.5246   -1.6544 F   0  0  0  0  0  0  0  0  0  0  0  0
    1.5670    4.0142   -0.1532 F   0  0  0  0  0  0  0  0  0  0  0  0
   -1.8794    1.6246    3.4618 F   0  0  0  0  0  0  0  0  0  0  0  0
   -3.6973    1.9751    2.4240 F   0  0  0  0  0  0  0  0  0  0  0  0
   -2.3309    3.5841    2.7421 F   0  0  0  0  0  0  0  0  0  0  0  0
    2.3087   -0.6637    3.6925 O   0  0  0  0  0  0  0  0  0  0  0  0
   -1.8047   -1.9721   -4.0055 O   0  0  0  0  0  0  0  0  0  0  0  0
    1.1082    0.9595    2.7482 O   0  0  0  0  0  0  0  0  0  0  0  0
   -0.1569   -3.2121   -3.1323 O   0  0  0  0  0  0  0  0  0  0  0  0
    0.9613   -1.0062    1.7359 N   0  0  0  0  0  0  0  0  0  0  0  0
   -1.1012   -1.6991   -1.7596 N   0  0  0  0  0  0  0  0  0  0  0  0
   -0.9448   -1.9867    0.7282 C   0  0  0  0  0  0  0  0  0  0  0  0
   -0.3322   -1.4152    1.7843 C   0  0  0  0  0  0  0  0  0  0  0  0
   -0.2603   -2.1141   -0.6160 C   0  0  0  0  0  0  0  0  0  0  0  0
    1.8574   -1.4108    0.6404 C   0  0  0  0  0  0  0  0  0  0  0  0
    1.1021   -1.4177   -0.6907 C   0  0  0  0  0  0  0  0  0  0  0  0
   -2.1957   -2.4659    0.8664 C   0  0  0  0  0  0  0  0  0  0  0  0
   -2.8997   -2.3584    2.0052 C   0  0  0  0  0  0  0  0  0  0  0  0
   -1.0522   -1.2651    2.9141 C   0  0  0  0  0  0  0  0  0  0  0  0
    1.4680   -0.1972    2.7213 C   0  0  0  0  0  0  0  0  0  0  0  0
   -2.0735   -0.6044   -1.5817 C   0  0  0  0  0  0  0  0  0  0  0  0
   -1.5829    0.5763   -0.7633 C   0  0  0  0  0  0  0  0  0  0  0  0
   -2.3147   -1.7042    3.0202 C   0  0  0  0  0  0  0  0  0  0  0  0
   -4.3331   -2.8309    2.0868 C   0  0  0  0  0  0  0  0  0  0  0  0
   -0.9773   -2.3359   -2.9787 C   0  0  0  0  0  0  0  0  0  0  0  0
   -0.1809    2.4524   -0.5430 C   0  0  0  0  0  0  0  0  0  0  0  0
   -1.7196    1.9327    1.1571 C   0  0  0  0  0  0  0  0  0  0  0  0
    3.1247   -0.5282    0.5108 C   0  0  0  0  0  0  0  0  0  0  0  0
   -2.1475    0.8963    0.4143 C   0  0  0  0  0  0  0  0  0  0  0  0
   -0.6195    1.3862   -1.2343 C   0  0  0  0  0  0  0  0  0  0  0  0
   -0.7363    2.7010    0.6558 C   0  0  0  0  0  0  0  0  0  0  0  0
    0.9640    3.2827   -1.0766 C   0  0  0  0  0  0  0  0  0  0  0  0
   -2.4126    2.2947    2.4531 C   0  0  0  0  0  0  0  0  0  0  0  0
    4.0919   -0.9566   -0.6028 C   0  0  0  0  0  0  0  0  0  0  0  0
    2.6057   -2.0353    3.7394 C   0  0  0  0  0  0  0  0  0  0  0  0
   -1.7097   -2.6810   -5.2189 C   0  0  0  0  0  0  0  0  0  0  0  0
    3.1561   -2.3693    5.1234 C   0  0  0  0  0  0  0  0  0  0  0  0
   -0.0718   -3.2170   -0.6611 H   0  0  0  0  0  0  0  0  0  0  0  0
    2.1823   -2.4605    0.8482 H   0  0  0  0  0  0  0  0  0  0  0  0
    0.9751   -0.3571   -0.9849 H   0  0  0  0  0  0  0  0  0  0  0  0
    1.7042   -1.8908   -1.5002 H   0  0  0  0  0  0  0  0  0  0  0  0
   -2.6674   -2.9681    0.0062 H   0  0  0  0  0  0  0  0  0  0  0  0
   -0.6221   -0.7950    3.8138 H   0  0  0  0  0  0  0  0  0  0  0  0
   -2.3490   -0.1589   -2.5657 H   0  0  0  0  0  0  0  0  0  0  0  0
   -3.0333   -1.0108   -1.1945 H   0  0  0  0  0  0  0  0  0  0  0  0
   -2.8573   -1.5513    3.9675 H   0  0  0  0  0  0  0  0  0  0  0  0
    2.8265    0.5344    0.3420 H   0  0  0  0  0  0  0  0  0  0  0  0
    3.7087   -0.5491    1.4602 H   0  0  0  0  0  0  0  0  0  0  0  0
   -2.9836    0.2831    0.7850 H   0  0  0  0  0  0  0  0  0  0  0  0
   -0.1799    1.1652   -2.2211 H   0  0  0  0  0  0  0  0  0  0  0  0
   -0.3846    3.5652    1.2406 H   0  0  0  0  0  0  0  0  0  0  0  0
    5.0434   -0.3788   -0.5456 H   0  0  0  0  0  0  0  0  0  0  0  0
    4.3484   -2.0373   -0.5174 H   0  0  0  0  0  0  0  0  0  0  0  0
    3.6728   -0.7727   -1.6171 H   0  0  0  0  0  0  0  0  0  0  0  0
    1.6845   -2.6355    3.5588 H   0  0  0  0  0  0  0  0  0  0  0  0
    3.3713   -2.2787    2.9682 H   0  0  0  0  0  0  0  0  0  0  0  0
   -2.4681   -2.2640   -5.9187 H   0  0  0  0  0  0  0  0  0  0  0  0
   -0.6999   -2.5429   -5.6663 H   0  0  0  0  0  0  0  0  0  0  0  0
   -1.9339   -3.7585   -5.0532 H   0  0  0  0  0  0  0  0  0  0  0  0
    3.4159   -3.4504    5.1993 H   0  0  0  0  0  0  0  0  0  0  0  0
    4.0777   -1.7817    5.3403 H   0  0  0  0  0  0  0  0  0  0  0  0
    2.4090   -2.1429    5.9187 H   0  0  0  0  0  0  0  0  0  0  0  0
  1 28  1  0      
  2 28  1  0      
  3 28  1  0      
  4 36  1  0      
  5 36  1  0      
  6 36  1  0      
  7 37  1  0      
  8 37  1  0      
  9 37  1  0      
 10 24  1  0      
 10 39  1  0      
 11 29  1  0      
 11 40  1  0      
 12 24  2  0      
 13 29  2  0      
 14 17  1  0      
 14 19  1  0      
 14 24  1  0      
 18 15  1  0      
 15 25  1  0      
 15 29  1  0      
 16 17  2  0      
 18 16  1  0      
 16 21  1  0      
 23 17  1  0      
 20 18  1  0      
 18 42  1  0      
 19 20  1  0      
 19 32  1  0      
 19 43  1  0      
 20 44  1  0      
 20 45  1  0      
 21 22  2  0      
 21 46  1  0      
 22 27  1  0      
 22 28  1  0      
 27 23  2  0      
 23 47  1  0      
 25 26  1  0      
 25 48  1  0      
 25 49  1  0      
 26 33  1  0      
 26 34  2  0      
 27 50  1  0      
 30 34  1  0      
 35 30  2  0      
 30 36  1  0      
 33 31  2  0      
 31 35  1  0      
 31 37  1  0      
 32 38  1  0      
 32 51  1  0      
 32 52  1  0      
 33 53  1  0      
 34 54  1  0      
 35 55  1  0      
 38 56  1  0      
 38 57  1  0      
 38 58  1  0      
 39 41  1  0      
 39 59  1  0      
 39 60  1  0      
 40 61  1  0      
 40 62  1  0      
 40 63  1  0      
 41 64  1  0      
 41 65  1  0      
 41 66  1  0      
M  END
