
  Chem3D Core 14.010291511563D

  0  0  0     0  0              0 V3000
M  V30 BEGIN CTAB
M  V30 COUNTS 57 59 0 0 0
M  V30 BEGIN ATOM
M  V30 1 Cl 6.703104 3.770774 0.384399 0
M  V30 2 O -1.490737 -2.460844 1.489638 0
M  V30 3 N -4.876061 -3.871413 1.013899 0
M  V30 4 C 2.248766 1.273045 -0.112357 0
M  V30 5 C 3.576540 1.017525 0.070757 0
M  V30 6 C 1.314829 0.361019 0.270697 0
M  V30 7 C 4.481711 2.170254 0.533920 0
M  V30 8 C 1.835751 2.484403 -0.566677 0
M  V30 9 C 4.096601 -0.234623 -0.045628 0
M  V30 10 C 1.538134 -0.538633 1.250506 0
M  V30 11 C 0.095653 0.287979 -0.302118 0
M  V30 12 C 5.713359 2.469851 -0.331018 0
M  V30 13 C -0.600059 -1.513652 1.044493 0
M  V30 14 C 0.612761 -1.436548 1.621286 0
M  V30 15 C -0.827730 -0.613427 0.069615 0
M  V30 16 C 0.703170 3.080359 -0.135498 0
M  V30 17 C 2.544663 3.160393 -1.493310 0
M  V30 18 C 5.276486 -0.591923 0.505325 0
M  V30 19 C 3.479619 -1.198153 -0.765779 0
M  V30 20 C -3.588159 -3.591507 1.643293 0
M  V30 21 C -2.790664 -2.476819 0.957081 0
M  V30 22 C 0.308768 4.281024 -0.588881 0
M  V30 23 C 2.164036 4.359828 -1.959757 0
M  V30 24 C 5.791363 -1.825782 0.381231 0
M  V30 25 C 3.979088 -2.436753 -0.902586 0
M  V30 26 C 1.040038 4.929814 -1.505179 0
M  V30 27 C 5.141431 -2.761521 -0.322529 0
M  V30 28 C -5.521450 -5.006271 1.660759 0
M  V30 29 C -5.762559 -2.716966 1.024673 0
M  V30 30 H 3.906106 3.113818 0.670454 0
M  V30 31 H 4.798530 1.941174 1.578781 0
M  V30 32 H 2.480852 -0.545792 1.823121 0
M  V30 33 H -0.176835 0.946406 -1.145170 0
M  V30 34 H 5.433070 2.790540 -1.351494 0
M  V30 35 H 6.368171 1.587726 -0.460431 0
M  V30 36 H 0.850457 -2.136399 2.441458 0
M  V30 37 H -1.787716 -0.598495 -0.470914 0
M  V30 38 H 0.076926 2.625136 0.650746 0
M  V30 39 H 3.442020 2.712748 -1.945259 0
M  V30 40 H 5.866559 0.101000 1.124454 0
M  V30 41 H 2.547540 -1.001805 -1.320874 0
M  V30 42 H -2.961527 -4.516475 1.607035 0
M  V30 43 H -3.722635 -3.334804 2.721446 0
M  V30 44 H -3.263839 -1.486689 1.150525 0
M  V30 45 H -2.736482 -2.686368 -0.136899 0
M  V30 46 H -0.613428 4.744223 -0.198838 0
M  V30 47 H 2.764726 4.870599 -2.731174 0
M  V30 48 H 6.750681 -2.077712 0.864739 0
M  V30 49 H 3.443315 -3.187697 -1.507900 0
M  V30 50 H 0.719128 5.914528 -1.883054 0
M  V30 51 H 5.560358 -3.775410 -0.431571 0
M  V30 52 H -6.473881 -5.269937 1.146127 0
M  V30 53 H -4.878040 -5.914528 1.611233 0
M  V30 54 H -5.750360 -4.798107 2.731174 0
M  V30 55 H -6.750681 -2.968990 0.575980 0
M  V30 56 H -5.357971 -1.886674 0.404415 0
M  V30 57 H -5.937380 -2.338982 2.057965 0
M  V30 END ATOM
M  V30 BEGIN BOND
M  V30 1 1 1 12
M  V30 2 1 2 13
M  V30 3 1 2 21
M  V30 4 1 3 20
M  V30 5 1 3 28
M  V30 6 1 3 29
M  V30 7 2 4 5
M  V30 8 1 4 6
M  V30 9 1 4 8
M  V30 10 1 5 7
M  V30 11 1 5 9
M  V30 12 2 6 10
M  V30 13 1 6 11
M  V30 14 1 7 12
M  V30 15 1 7 30
M  V30 16 1 7 31
M  V30 17 2 8 16
M  V30 18 1 8 17
M  V30 19 2 9 18
M  V30 20 1 9 19
M  V30 21 1 10 14
M  V30 22 1 10 32
M  V30 23 2 15 11
M  V30 24 1 11 33
M  V30 25 1 12 34
M  V30 26 1 12 35
M  V30 27 2 14 13
M  V30 28 1 13 15
M  V30 29 1 14 36
M  V30 30 1 15 37
M  V30 31 1 16 22
M  V30 32 1 16 38
M  V30 33 2 23 17
M  V30 34 1 17 39
M  V30 35 1 18 24
M  V30 36 1 18 40
M  V30 37 2 25 19
M  V30 38 1 19 41
M  V30 39 1 20 21
M  V30 40 1 20 42
M  V30 41 1 20 43
M  V30 42 1 21 44
M  V30 43 1 21 45
M  V30 44 2 22 26
M  V30 45 1 22 46
M  V30 46 1 26 23
M  V30 47 1 23 47
M  V30 48 2 24 27
M  V30 49 1 24 48
M  V30 50 1 27 25
M  V30 51 1 25 49
M  V30 52 1 26 50
M  V30 53 1 27 51
M  V30 54 1 28 52
M  V30 55 1 28 53
M  V30 56 1 28 54
M  V30 57 1 29 55
M  V30 58 1 29 56
M  V30 59 1 29 57
M  V30 END BOND
M  V30 END CTAB
M  END
