
  Chem3D Core 15.003231613533D

 47 51  0  0  0  0  0  0  0  0999 V2000
    2.4632   -4.1445    1.4013 O   0  0  0  0  0  0  0  0  0  0  0  0
    2.9345   -3.0446    1.5786 C   0  0  0  0  0  0  0  0  0  0  0  0
    2.1811   -1.8942    1.5060 N   0  0  0  0  0  0  0  0  0  0  0  0
    0.9179   -2.1192    1.0701 C   0  0  0  0  0  0  0  0  0  0  0  0
    0.0031   -2.6951    1.8705 C   0  0  0  0  0  0  0  0  0  0  0  0
   -1.2310   -2.9428    1.4082 C   0  0  0  0  0  0  0  0  0  0  0  0
   -1.5567   -2.6109    0.1497 C   0  0  0  0  0  0  0  0  0  0  0  0
   -0.6686   -2.0084   -0.6617 C   0  0  0  0  0  0  0  0  0  0  0  0
   -1.0245   -1.6761   -2.0927 C   0  0  0  0  0  0  0  0  0  0  0  0
   -1.9722   -2.4582   -2.5853 F   0  0  0  0  0  0  0  0  0  0  0  0
   -1.4782   -0.4323   -2.1389 F   0  0  0  0  0  0  0  0  0  0  0  0
    0.0181   -1.7406   -2.9059 F   0  0  0  0  0  0  0  0  0  0  0  0
    0.5762   -1.8030   -0.1927 C   0  0  0  0  0  0  0  0  0  0  0  0
    2.6899   -0.6476    1.7371 C   0  0  0  0  0  0  0  0  0  0  0  0
    4.0257   -0.5915    1.9453 C   0  0  0  0  0  0  0  0  0  0  0  0
    4.6233    0.5954    2.1331 C   0  0  0  0  0  0  0  0  0  0  0  0
    4.0048    1.6919    2.1397 N   0  0  0  0  0  0  0  0  0  0  0  0
    2.7481    1.6747    1.9977 C   0  0  0  0  0  0  0  0  0  0  0  0
    2.1419    2.8713    2.0426 C   0  0  0  0  0  0  0  0  0  0  0  0
    0.8142    2.9826    1.9159 C   0  0  0  0  0  0  0  0  0  0  0  0
    0.0228    1.9036    1.7579 C   0  0  0  0  0  0  0  0  0  0  0  0
   -1.3317    2.0041    1.6471 C   0  0  0  0  0  0  0  0  0  0  0  0
   -2.1599    0.9542    1.4545 C   0  0  0  0  0  0  0  0  0  0  0  0
   -3.4879    1.1143    1.3468 C   0  0  0  0  0  0  0  0  0  0  0  0
   -4.0203    2.3421    1.4324 C   0  0  0  0  0  0  0  0  0  0  0  0
   -5.2789    2.4569    1.3269 N   0  0  0  0  0  0  0  0  0  0  0  0
   -3.2623    3.3378    1.6135 N   0  0  0  0  0  0  0  0  0  0  0  0
   -2.0105    3.1722    1.7114 C   0  0  0  0  0  0  0  0  0  0  0  0
    0.6948    0.7288    1.7261 C   0  0  0  0  0  0  0  0  0  0  0  0
    2.0316    0.5446    1.8085 C   0  0  0  0  0  0  0  0  0  0  0  0
    4.7944   -1.6915    1.9852 C   0  0  0  0  0  0  0  0  0  0  0  0
    4.2581   -2.9038    1.8240 C   0  0  0  0  0  0  0  0  0  0  0  0
    0.2629   -2.9725    2.9059 H   0  0  0  0  0  0  0  0  0  0  0  0
   -1.9775   -3.4224    2.0631 H   0  0  0  0  0  0  0  0  0  0  0  0
   -2.5763   -2.8294   -0.2077 H   0  0  0  0  0  0  0  0  0  0  0  0
    1.3375   -1.3518   -0.8504 H   0  0  0  0  0  0  0  0  0  0  0  0
    5.7122    0.6827    2.2931 H   0  0  0  0  0  0  0  0  0  0  0  0
    2.7367    3.7918    2.1864 H   0  0  0  0  0  0  0  0  0  0  0  0
    0.4397    4.0149    1.9632 H   0  0  0  0  0  0  0  0  0  0  0  0
   -1.8230   -0.0870    1.3665 H   0  0  0  0  0  0  0  0  0  0  0  0
   -4.1311    0.2310    1.1872 H   0  0  0  0  0  0  0  0  0  0  0  0
   -5.7266    3.4041    1.3892 H   0  0  0  0  0  0  0  0  0  0  0  0
   -5.8810    1.6105    1.1766 H   0  0  0  0  0  0  0  0  0  0  0  0
   -1.5191    4.1445    1.8665 H   0  0  0  0  0  0  0  0  0  0  0  0
    0.0891   -0.1692    1.6574 H   0  0  0  0  0  0  0  0  0  0  0  0
    5.8810   -1.6279    2.1695 H   0  0  0  0  0  0  0  0  0  0  0  0
    4.9104   -3.7927    1.8768 H   0  0  0  0  0  0  0  0  0  0  0  0
  1  2  2  0      
  2  3  1  0      
  2 32  1  0      
  3  4  1  0      
 14  3  1  0      
  4  5  1  0      
  4 13  2  0      
  5  6  2  0      
  5 33  1  0      
  6  7  1  0      
  6 34  1  0      
  7  8  2  0      
  7 35  1  0      
  8  9  1  0      
  8 13  1  0      
  9 10  1  0      
  9 11  1  0      
  9 12  1  0      
 13 36  1  0      
 15 14  2  0      
 30 14  1  0      
 15 16  1  0      
 31 15  1  0      
 16 17  2  0      
 16 37  1  0      
 17 18  1  0      
 18 19  2  0      
 18 30  1  0      
 19 20  1  0      
 19 38  1  0      
 20 21  2  0      
 20 39  1  0      
 21 22  1  0      
 21 29  1  0      
 22 23  1  0      
 22 28  2  0      
 23 24  2  0      
 23 40  1  0      
 24 25  1  0      
 24 41  1  0      
 25 26  1  0      
 25 27  2  0      
 26 42  1  0      
 26 43  1  0      
 27 28  1  0      
 28 44  1  0      
 29 30  2  0      
 29 45  1  0      
 32 31  2  0      
 31 46  1  0      
 32 47  1  0      
M  END
