
  Chem3D Core 15.003211621233D

 73 79  0  0  0  0  0  0  0  0999 V2000
    4.5703   -3.9531    1.7399 O   0  0  0  0  0  0  0  0  0  0  0  0
    4.8853   -2.8193    2.0184 C   0  0  0  0  0  0  0  0  0  0  0  0
    4.0214   -1.7567    1.8896 N   0  0  0  0  0  0  0  0  0  0  0  0
    2.9057   -2.0370    1.1735 C   0  0  0  0  0  0  0  0  0  0  0  0
    1.9187   -2.8075    1.6421 C   0  0  0  0  0  0  0  0  0  0  0  0
    0.8339   -3.0227    0.8849 C   0  0  0  0  0  0  0  0  0  0  0  0
    0.6346   -2.5186   -0.3584 C   0  0  0  0  0  0  0  0  0  0  0  0
   -0.4985   -2.7558   -0.9177 N   0  0  0  0  0  0  0  0  0  0  0  0
   -1.0860   -1.9855   -2.0385 C   0  0  0  0  0  0  0  0  0  0  0  0
   -2.3592   -1.2863   -1.5081 C   0  0  0  0  0  0  0  0  0  0  0  0
   -3.2887   -2.0937   -0.7106 N   0  0  0  0  0  0  0  0  0  0  0  0
   -4.6382   -1.7968   -0.6926 C   0  0  0  0  0  0  0  0  0  0  0  0
   -5.5077   -2.6060    0.2678 C   0  0  0  0  0  0  0  0  0  0  0  0
   -6.9738   -2.1489    0.3174 C   0  0  0  0  0  0  0  0  0  0  0  0
   -5.1211   -0.9367   -1.3891 O   0  0  0  0  0  0  0  0  0  0  0  0
   -2.6527   -3.0257    0.2252 C   0  0  0  0  0  0  0  0  0  0  0  0
   -1.4733   -3.7616   -0.4157 C   0  0  0  0  0  0  0  0  0  0  0  0
    1.6792   -1.7921   -0.8525 C   0  0  0  0  0  0  0  0  0  0  0  0
    1.8781   -1.3342   -2.2985 C   0  0  0  0  0  0  0  0  0  0  0  0
    1.4120   -0.1048   -2.4634 F   0  0  0  0  0  0  0  0  0  0  0  0
    3.1580   -1.2753   -2.6435 F   0  0  0  0  0  0  0  0  0  0  0  0
    1.3236   -2.1358   -3.1945 F   0  0  0  0  0  0  0  0  0  0  0  0
    2.7659   -1.5791   -0.0782 C   0  0  0  0  0  0  0  0  0  0  0  0
    4.3411   -0.4817    2.2578 C   0  0  0  0  0  0  0  0  0  0  0  0
    5.6281   -0.2737    2.6137 C   0  0  0  0  0  0  0  0  0  0  0  0
    6.0376    0.9679    2.9180 C   0  0  0  0  0  0  0  0  0  0  0  0
    5.2790    1.9737    2.9093 N   0  0  0  0  0  0  0  0  0  0  0  0
    4.0517    1.8020    2.6541 C   0  0  0  0  0  0  0  0  0  0  0  0
    3.2765    2.8971    2.6963 C   0  0  0  0  0  0  0  0  0  0  0  0
    1.9591    2.8278    2.4653 C   0  0  0  0  0  0  0  0  0  0  0  0
    1.3405    1.6571    2.2130 C   0  0  0  0  0  0  0  0  0  0  0  0
   -0.0068    1.5629    2.0289 C   0  0  0  0  0  0  0  0  0  0  0  0
   -0.8345    2.6297    1.9670 C   0  0  0  0  0  0  0  0  0  0  0  0
   -2.1610    2.4961    1.7822 C   0  0  0  0  0  0  0  0  0  0  0  0
   -2.9862    3.5573    1.7106 C   0  0  0  0  0  0  0  0  0  0  0  0
   -4.3048    3.3883    1.5253 C   0  0  0  0  0  0  0  0  0  0  0  0
   -4.8127    2.1524    1.4121 C   0  0  0  0  0  0  0  0  0  0  0  0
   -3.9961    1.0909    1.4838 C   0  0  0  0  0  0  0  0  0  0  0  0
   -2.6741    1.2588    1.6645 C   0  0  0  0  0  0  0  0  0  0  0  0
   -1.9212    0.2454    1.7241 N   0  0  0  0  0  0  0  0  0  0  0  0
   -0.6760    0.3967    1.8900 C   0  0  0  0  0  0  0  0  0  0  0  0
    2.1776    0.5946    2.1739 C   0  0  0  0  0  0  0  0  0  0  0  0
    3.5180    0.6005    2.3456 C   0  0  0  0  0  0  0  0  0  0  0  0
    6.5141   -1.2793    2.6912 C   0  0  0  0  0  0  0  0  0  0  0  0
    6.1449   -2.5365    2.4276 C   0  0  0  0  0  0  0  0  0  0  0  0
    1.9806   -3.2194    2.6642 H   0  0  0  0  0  0  0  0  0  0  0  0
    0.0758   -3.5987    1.4350 H   0  0  0  0  0  0  0  0  0  0  0  0
   -0.4814   -1.1436   -2.4166 H   0  0  0  0  0  0  0  0  0  0  0  0
   -1.3263   -2.6635   -2.8901 H   0  0  0  0  0  0  0  0  0  0  0  0
   -2.0561   -0.4194   -0.8727 H   0  0  0  0  0  0  0  0  0  0  0  0
   -2.8718   -0.8563   -2.4012 H   0  0  0  0  0  0  0  0  0  0  0  0
   -5.4930   -3.6760   -0.0496 H   0  0  0  0  0  0  0  0  0  0  0  0
   -5.0951   -2.5115    1.3010 H   0  0  0  0  0  0  0  0  0  0  0  0
   -7.5578   -2.7630    1.0414 H   0  0  0  0  0  0  0  0  0  0  0  0
   -7.0549   -1.0854    0.6409 H   0  0  0  0  0  0  0  0  0  0  0  0
   -7.4663   -2.2504   -0.6769 H   0  0  0  0  0  0  0  0  0  0  0  0
   -3.3518   -3.8185    0.5733 H   0  0  0  0  0  0  0  0  0  0  0  0
   -2.3123   -2.4666    1.1267 H   0  0  0  0  0  0  0  0  0  0  0  0
   -1.8640   -4.3277   -1.2959 H   0  0  0  0  0  0  0  0  0  0  0  0
   -1.0637   -4.5859    0.2024 H   0  0  0  0  0  0  0  0  0  0  0  0
    3.6194   -0.9985   -0.4668 H   0  0  0  0  0  0  0  0  0  0  0  0
    7.0846    1.1828    3.1945 H   0  0  0  0  0  0  0  0  0  0  0  0
    3.7196    3.8811    2.9349 H   0  0  0  0  0  0  0  0  0  0  0  0
    1.4337    3.7904    2.5432 H   0  0  0  0  0  0  0  0  0  0  0  0
   -0.4680    3.6625    2.0472 H   0  0  0  0  0  0  0  0  0  0  0  0
   -2.5973    4.5859    1.8020 H   0  0  0  0  0  0  0  0  0  0  0  0
   -4.9722    4.2645    1.4674 H   0  0  0  0  0  0  0  0  0  0  0  0
   -5.8957    2.0088    1.2616 H   0  0  0  0  0  0  0  0  0  0  0  0
   -4.4244    0.0787    1.3928 H   0  0  0  0  0  0  0  0  0  0  0  0
   -0.1915   -0.5898    1.9235 H   0  0  0  0  0  0  0  0  0  0  0  0
    1.7216   -0.3768    2.0093 H   0  0  0  0  0  0  0  0  0  0  0  0
    7.5578   -1.0994    3.0023 H   0  0  0  0  0  0  0  0  0  0  0  0
    6.8884   -3.3466    2.5255 H   0  0  0  0  0  0  0  0  0  0  0  0
  1  2  2  0      
  2  3  1  0      
  2 45  1  0      
  3  4  1  0      
 24  3  1  0      
  4  5  1  0      
  4 23  2  0      
  5  6  2  0      
  5 46  1  0      
  6  7  1  0      
  6 47  1  0      
  7  8  1  0      
  7 18  2  0      
  8  9  1  0      
  8 17  1  0      
  9 10  1  0      
  9 48  1  0      
  9 49  1  0      
 10 11  1  0      
 10 50  1  0      
 10 51  1  0      
 11 12  1  0      
 11 16  1  0      
 12 13  1  0      
 12 15  2  0      
 13 14  1  0      
 13 52  1  0      
 13 53  1  0      
 14 54  1  0      
 14 55  1  0      
 14 56  1  0      
 16 17  1  0      
 16 57  1  0      
 16 58  1  0      
 17 59  1  0      
 17 60  1  0      
 18 19  1  0      
 18 23  1  0      
 19 20  1  0      
 19 21  1  0      
 19 22  1  0      
 23 61  1  0      
 25 24  2  0      
 43 24  1  0      
 25 26  1  0      
 44 25  1  0      
 26 27  2  0      
 26 62  1  0      
 27 28  1  0      
 28 29  2  0      
 28 43  1  0      
 29 30  1  0      
 29 63  1  0      
 30 31  2  0      
 30 64  1  0      
 31 32  1  0      
 31 42  1  0      
 32 33  2  0      
 41 32  1  0      
 33 34  1  0      
 33 65  1  0      
 34 35  2  0      
 34 39  1  0      
 35 36  1  0      
 35 66  1  0      
 36 37  2  0      
 36 67  1  0      
 37 38  1  0      
 37 68  1  0      
 38 39  2  0      
 38 69  1  0      
 39 40  1  0      
 41 40  2  0      
 41 70  1  0      
 42 43  2  0      
 42 71  1  0      
 45 44  2  0      
 44 72  1  0      
 45 73  1  0      
M  END
