
  Chem3D Core 15.008171512553D

 39 42  0  0  0  0  0  0  0  0999 V2000
   -5.6337    1.7996   -0.9763 O   0  0  0  0  0  0  0  0  0  0  0  0
    2.5774   -0.8357    0.2720 N   0  0  0  0  0  0  0  0  0  0  0  0
    1.4186   -0.5550   -0.0347 N   0  0  0  0  0  0  0  0  0  0  0  0
   -0.6170    2.1646    0.6499 N   0  0  0  0  0  0  0  0  0  0  0  0
    4.3843    0.2373    1.2550 N   0  0  0  0  0  0  0  0  0  0  0  0
    3.9382    2.3962    1.7709 N   0  0  0  0  0  0  0  0  0  0  0  0
    2.0665    3.3803    1.2822 N   0  0  0  0  0  0  0  0  0  0  0  0
    2.3208    1.1356    0.8413 C   0  0  0  0  0  0  0  0  0  0  0  0
    1.1720    0.6356    0.3355 C   0  0  0  0  0  0  0  0  0  0  0  0
    3.2065    0.1210    0.8140 C   0  0  0  0  0  0  0  0  0  0  0  0
   -0.0862    1.0946    0.2105 C   0  0  0  0  0  0  0  0  0  0  0  0
    2.7557    2.3192    1.3140 C   0  0  0  0  0  0  0  0  0  0  0  0
   -2.1857    1.1804   -0.3369 C   0  0  0  0  0  0  0  0  0  0  0  0
   -1.8446    2.2695    0.3549 C   0  0  0  0  0  0  0  0  0  0  0  0
   -1.0792    0.4318   -0.4200 C   0  0  0  0  0  0  0  0  0  0  0  0
    3.2676   -2.1297    0.0640 C   0  0  0  0  0  0  0  0  0  0  0  0
    4.6810    1.3729    1.7243 C   0  0  0  0  0  0  0  0  0  0  0  0
   -3.4327    1.0053   -0.7873 C   0  0  0  0  0  0  0  0  0  0  0  0
   -2.7412    3.2208    0.6308 C   0  0  0  0  0  0  0  0  0  0  0  0
   -4.3568    1.9516   -0.5312 C   0  0  0  0  0  0  0  0  0  0  0  0
   -3.9934    3.0418    0.1753 C   0  0  0  0  0  0  0  0  0  0  0  0
    2.2705   -3.3002    0.0465 C   0  0  0  0  0  0  0  0  0  0  0  0
    4.0762   -2.0883   -1.2418 C   0  0  0  0  0  0  0  0  0  0  0  0
   -5.7058    0.9572   -1.4537 H   0  0  0  0  0  0  0  0  0  0  0  0
   -0.1539    2.8939    1.2304 H   0  0  0  0  0  0  0  0  0  0  0  0
    2.4707    4.2761    1.6507 H   0  0  0  0  0  0  0  0  0  0  0  0
    1.1316    3.4148    0.8243 H   0  0  0  0  0  0  0  0  0  0  0  0
   -1.0209   -0.5411   -0.9259 H   0  0  0  0  0  0  0  0  0  0  0  0
    3.9657   -2.3073    0.9200 H   0  0  0  0  0  0  0  0  0  0  0  0
    5.7058    1.4891    2.1166 H   0  0  0  0  0  0  0  0  0  0  0  0
   -3.6978    0.0999   -1.3557 H   0  0  0  0  0  0  0  0  0  0  0  0
   -2.4598    4.1153    1.2086 H   0  0  0  0  0  0  0  0  0  0  0  0
   -4.7516    3.8144    0.3885 H   0  0  0  0  0  0  0  0  0  0  0  0
    2.7980   -4.2761   -0.0553 H   0  0  0  0  0  0  0  0  0  0  0  0
    1.6788   -3.3349    0.9900 H   0  0  0  0  0  0  0  0  0  0  0  0
    1.5562   -3.2152   -0.8037 H   0  0  0  0  0  0  0  0  0  0  0  0
    4.6159   -3.0477   -1.4121 H   0  0  0  0  0  0  0  0  0  0  0  0
    4.8376   -1.2756   -1.2225 H   0  0  0  0  0  0  0  0  0  0  0  0
    3.4104   -1.9089   -2.1166 H   0  0  0  0  0  0  0  0  0  0  0  0
  1 20  1  0      
  1 24  1  0      
  2  3  1  0      
  2 10  1  0      
  2 16  1  0      
  3  9  2  0      
  4 11  1  0      
 14  4  1  0      
  4 25  1  0      
  5 10  1  0      
 17  5  2  0      
 12  6  2  0      
  6 17  1  0      
  7 12  1  0      
  7 26  1  0      
  7 27  1  0      
  9  8  1  0      
  8 10  2  0      
  8 12  1  0      
  9 11  1  0      
 11 15  2  0      
 14 13  2  0      
 15 13  1  0      
 13 18  1  0      
 19 14  1  0      
 15 28  1  0      
 16 22  1  0      
 16 23  1  0      
 16 29  1  0      
 17 30  1  0      
 20 18  2  0      
 18 31  1  0      
 21 19  2  0      
 19 32  1  0      
 20 21  1  0      
 21 33  1  0      
 22 34  1  0      
 22 35  1  0      
 22 36  1  0      
 23 37  1  0      
 23 38  1  0      
 23 39  1  0      
M  END
