
  Chem3D Core 14.010291511593D

  0  0  0     0  0              0 V3000
M  V30 BEGIN CTAB
M  V30 COUNTS 97 105 0 0 0
M  V30 BEGIN ATOM
M  V30 1 O -1.490771 0.090728 -4.277777 0
M  V30 2 O -2.989520 3.407027 -0.466942 0
M  V30 3 O -3.459444 1.108091 -4.480936 0
M  V30 4 O -1.883905 5.145203 -1.453654 0
M  V30 5 C -1.353515 1.915198 -1.338346 0
M  V30 6 C -0.904854 1.053377 -2.274498 0
M  V30 7 C -1.707327 0.839145 -3.327562 0
M  V30 8 C -2.552181 2.541611 -1.438932 0
M  V30 9 C -2.890774 1.446890 -3.445938 0
M  V30 10 C -3.337220 2.299288 -2.513433 0
M  V30 11 C -2.601517 0.198258 -5.166556 0
M  V30 12 C -4.682069 2.975740 -2.658738 0
M  V30 13 C -2.443676 4.658614 -0.496301 0
M  V30 14 C -2.635186 5.340851 0.843476 0
M  V30 15 C -0.446133 2.142412 -0.153783 0
M  V30 16 C 0.423841 0.308831 -2.168080 0
M  V30 17 N 1.359413 0.851464 -1.174032 0
M  V30 18 C 1.005815 2.165975 -0.679032 0
M  V30 19 C 2.061313 2.751688 0.301892 0
M  V30 20 C 2.733325 0.840711 -1.668049 0
M  V30 21 C 3.730644 1.373497 -0.634727 0
M  V30 22 N 3.368841 2.749773 -0.340835 0
M  V30 23 C -1.837330 -5.318934 -0.023509 0
M  V30 24 C -2.721351 -5.247186 -1.030453 0
M  V30 25 C -3.057847 -4.038323 -1.518352 0
M  V30 26 C -2.537090 -2.946433 -0.928416 0
M  V30 27 C -1.620319 -3.000300 0.054655 0
M  V30 28 C -1.285493 -4.219836 0.514122 0
M  V30 29 C -0.340571 -4.312453 1.683912 0
M  V30 30 C -0.965649 -1.783028 0.711983 0
M  V30 31 N -1.071313 -1.940295 2.176952 0
M  V30 32 C -0.764131 -3.265652 2.723867 0
M  V30 33 O -3.283431 -6.368572 -1.557798 0
M  V30 34 O -4.001187 -3.934519 -2.508667 0
M  V30 35 C -3.464907 -3.592082 -3.766904 0
M  V30 36 C 0.247405 -1.221874 -2.043675 0
M  V30 37 O 0.931477 -1.782430 -0.957335 0
M  V30 38 S -0.773903 0.942072 1.181702 0
M  V30 39 C -1.684196 -0.438074 0.433983 0
M  V30 40 C 0.534880 -1.697102 0.346668 0
M  V30 41 C 4.381799 3.458481 0.425929 0
M  V30 42 O 1.354416 -1.689786 1.243644 0
M  V30 43 O 2.883562 1.659837 -2.819288 0
M  V30 44 H 1.011497 2.872913 -1.551444 0
M  V30 45 C 2.917596 0.950212 1.754727 0
M  V30 46 C 1.424372 1.774702 3.860936 0
M  V30 47 C 1.422203 2.466125 2.700732 0
M  V30 48 C 2.969734 0.309410 2.931803 0
M  V30 49 C 2.238836 0.706513 3.984594 0
M  V30 50 C 2.347346 -0.042113 5.295660 0
M  V30 51 O 0.705149 2.246525 4.930979 0
M  V30 52 O 0.656107 3.591476 2.620927 0
M  V30 53 C -0.613919 1.750305 4.992756 0
M  V30 54 C 2.125636 2.029385 1.635237 0
M  V30 55 C 3.811029 0.497579 0.624427 0
M  V30 56 H -3.099766 -0.787510 -5.312868 0
M  V30 57 H -2.280738 0.621823 -6.146371 0
M  V30 58 H -5.348231 2.698275 -1.810294 0
M  V30 59 H -4.561646 4.082890 -2.671112 0
M  V30 60 H -5.214104 2.698688 -3.594993 0
M  V30 61 H -2.207668 6.368572 0.826152 0
M  V30 62 H -3.719060 5.419259 1.086161 0
M  V30 63 H -2.121770 4.767831 1.648867 0
M  V30 64 H -0.609963 3.159495 0.268917 0
M  V30 65 H 0.847646 0.498060 -3.186162 0
M  V30 66 H 1.784993 3.821632 0.472002 0
M  V30 67 H 3.017504 -0.194394 -1.971556 0
M  V30 68 H 4.732203 1.357244 -1.137101 0
M  V30 69 H -1.574754 -6.312829 0.374476 0
M  V30 70 H -2.899963 -1.979465 -1.305455 0
M  V30 71 H 0.703086 -4.156805 1.330060 0
M  V30 72 H -0.362248 -5.323915 2.152818 0
M  V30 73 H -0.420556 -1.246453 2.625999 0
M  V30 74 H -1.679305 -3.636042 3.247498 0
M  V30 75 H 0.025619 -3.165148 3.505284 0
M  V30 76 H -3.938736 -6.096441 -2.221532 0
M  V30 77 H -2.953803 -2.605650 -3.713663 0
M  V30 78 H -2.748675 -4.377301 -4.097956 0
M  V30 79 H -4.302490 -3.528464 -4.496715 0
M  V30 80 H 0.685046 -1.708448 -2.948681 0
M  V30 81 H -0.807563 -1.544929 -2.051459 0
M  V30 82 H -2.707689 -0.466310 0.877480 0
M  V30 83 H -1.865509 -0.293786 -0.640354 0
M  V30 84 H 4.084677 4.521270 0.579146 0
M  V30 85 H 5.348231 3.476241 -0.128058 0
M  V30 86 H 4.572846 3.012048 1.426000 0
M  V30 87 H 2.882323 2.573575 -2.526373 0
M  V30 88 H 3.642398 -0.557950 3.031658 0
M  V30 89 H 3.194326 -0.763660 5.309358 0
M  V30 90 H 2.514308 0.656342 6.146371 0
M  V30 91 H 1.416603 -0.623070 5.485099 0
M  V30 92 H 0.263327 3.770841 3.490265 0
M  V30 93 H -1.086328 2.136676 5.923199 0
M  V30 94 H -1.198601 2.108479 4.116480 0
M  V30 95 H -0.609737 0.638362 5.019523 0
M  V30 96 H 4.858370 0.531118 1.012083 0
M  V30 97 H 3.609851 -0.566103 0.366432 0
M  V30 END ATOM
M  V30 BEGIN BOND
M  V30 1 1 1 7
M  V30 2 1 1 11
M  V30 3 1 2 8
M  V30 4 1 2 13
M  V30 5 1 3 9
M  V30 6 1 3 11
M  V30 7 2 4 13
M  V30 8 1 5 6
M  V30 9 2 5 8
M  V30 10 1 15 5
M  V30 11 2 6 7
M  V30 12 1 6 16
M  V30 13 1 7 9
M  V30 14 1 8 10
M  V30 15 2 9 10
M  V30 16 1 10 12
M  V30 17 1 11 56
M  V30 18 1 11 57
M  V30 19 1 12 58
M  V30 20 1 12 59
M  V30 21 1 12 60
M  V30 22 1 13 14
M  V30 23 1 14 61
M  V30 24 1 14 62
M  V30 25 1 14 63
M  V30 26 1 15 18
M  V30 27 1 15 38
M  V30 28 1 15 64
M  V30 29 1 16 17
M  V30 30 1 16 36
M  V30 31 1 16 65
M  V30 32 1 18 17
M  V30 33 1 17 20
M  V30 34 1 19 18
M  V30 35 1 18 44
M  V30 36 1 19 22
M  V30 37 1 19 54
M  V30 38 1 19 66
M  V30 39 1 20 21
M  V30 40 1 20 43
M  V30 41 1 20 67
M  V30 42 1 21 22
M  V30 43 1 21 55
M  V30 44 1 21 68
M  V30 45 1 22 41
M  V30 46 2 23 24
M  V30 47 1 23 28
M  V30 48 1 23 69
M  V30 49 1 24 25
M  V30 50 1 24 33
M  V30 51 2 25 26
M  V30 52 1 25 34
M  V30 53 1 26 27
M  V30 54 1 26 70
M  V30 55 2 27 28
M  V30 56 1 27 30
M  V30 57 1 29 28
M  V30 58 1 29 32
M  V30 59 1 29 71
M  V30 60 1 29 72
M  V30 61 1 30 31
M  V30 62 1 30 39
M  V30 63 1 30 40
M  V30 64 1 31 32
M  V30 65 1 31 73
M  V30 66 1 32 74
M  V30 67 1 32 75
M  V30 68 1 33 76
M  V30 69 1 34 35
M  V30 70 1 35 77
M  V30 71 1 35 78
M  V30 72 1 35 79
M  V30 73 1 36 37
M  V30 74 1 36 80
M  V30 75 1 36 81
M  V30 76 1 37 40
M  V30 77 1 39 38
M  V30 78 1 39 82
M  V30 79 1 39 83
M  V30 80 2 40 42
M  V30 81 1 41 84
M  V30 82 1 41 85
M  V30 83 1 41 86
M  V30 84 1 43 87
M  V30 85 2 45 48
M  V30 86 1 54 45
M  V30 87 1 55 45
M  V30 88 1 46 47
M  V30 89 2 46 49
M  V30 90 1 46 51
M  V30 91 1 47 52
M  V30 92 2 47 54
M  V30 93 1 48 49
M  V30 94 1 48 88
M  V30 95 1 49 50
M  V30 96 1 50 89
M  V30 97 1 50 90
M  V30 98 1 50 91
M  V30 99 1 51 53
M  V30 100 1 52 92
M  V30 101 1 53 93
M  V30 102 1 53 94
M  V30 103 1 53 95
M  V30 104 1 55 96
M  V30 105 1 55 97
M  V30 END BOND
M  V30 END CTAB
M  END
