
  Chem3D Core 14.010291512043D

  0  0  0     0  0              0 V3000
M  V30 BEGIN CTAB
M  V30 COUNTS 65 67 0 0 0
M  V30 BEGIN ATOM
M  V30 1 O -1.596638 1.584295 1.593678 0
M  V30 2 O 1.929522 -2.733584 1.034677 0
M  V30 3 O 0.212065 -1.911644 -0.195089 0
M  V30 4 O 2.621592 2.263646 -3.257517 0
M  V30 5 O 1.049835 0.661890 -3.012393 0
M  V30 6 N -0.813944 -0.502921 1.973362 0
M  V30 7 N 0.787656 1.168574 -0.353877 0
M  V30 8 C -1.813541 -2.593353 2.499082 0
M  V30 9 C -2.093048 -1.091294 2.356738 0
M  V30 10 C -0.381209 -2.604143 3.035760 0
M  V30 11 C 0.259008 -1.483608 2.186465 0
M  V30 12 C -2.906862 -3.271452 3.329821 0
M  V30 13 C -3.285351 -0.921956 1.399799 0
M  V30 14 C -4.282271 -2.659909 2.990156 0
M  V30 15 C -4.311825 -2.063585 1.571813 0
M  V30 16 C -0.670885 0.808876 1.576628 0
M  V30 17 C 0.776368 -2.051619 0.868005 0
M  V30 18 C 0.720375 1.258111 1.108810 0
M  V30 19 C 0.995211 2.693747 1.598227 0
M  V30 20 C 2.094317 1.391981 -0.994278 0
M  V30 21 C 3.109821 0.280408 -0.653694 0
M  V30 22 C 1.866015 1.406383 -2.509507 0
M  V30 23 C 4.008577 0.544287 0.570485 0
M  V30 24 C 4.199943 -0.693531 1.425540 0
M  V30 25 C 3.615970 3.083439 -2.705623 0
M  V30 26 C 4.745465 -1.807377 0.905346 0
M  V30 27 C 3.821063 -0.714725 2.716528 0
M  V30 28 C 4.894672 -2.916142 1.646582 0
M  V30 29 C 3.967177 -1.818816 3.465185 0
M  V30 30 C 4.425982 3.697142 -3.845600 0
M  V30 31 C 4.502213 -2.925509 2.929069 0
M  V30 32 H -1.789632 -3.055369 1.479956 0
M  V30 33 H -2.355173 -0.678700 3.362347 0
M  V30 34 H 2.414803 -2.497865 1.843327 0
M  V30 35 H 0.419517 0.235273 -0.670509 0
M  V30 36 H -0.379316 -2.319131 4.114487 0
M  V30 37 H 0.117630 -3.593149 2.931569 0
M  V30 38 H 1.098275 -1.049601 2.774252 0
M  V30 39 H -2.704966 -3.151718 4.419822 0
M  V30 40 H -2.895439 -4.366124 3.114454 0
M  V30 41 H -3.785537 0.054649 1.601153 0
M  V30 42 H -2.929245 -0.898944 0.342666 0
M  V30 43 H -5.080088 -3.431050 3.108584 0
M  V30 44 H -4.523717 -1.842819 3.711905 0
M  V30 45 H -4.098407 -2.883579 0.844820 0
M  V30 46 H -5.335687 -1.692886 1.326880 0
M  V30 47 H 1.491650 0.598465 1.552152 0
M  V30 48 H 0.794823 2.782117 2.690849 0
M  V30 49 H 2.051264 3.008108 1.451076 0
M  V30 50 H 0.354872 3.436106 1.069695 0
M  V30 51 H 2.462173 2.385751 -0.665824 0
M  V30 52 H 2.541102 -0.666200 -0.525441 0
M  V30 53 H 3.774976 0.085415 -1.528692 0
M  V30 54 H 5.009946 0.906238 0.237371 0
M  V30 55 H 3.605309 1.375295 1.187090 0
M  V30 56 H 3.138133 3.901715 -2.117583 0
M  V30 57 H 4.300236 2.480100 -2.065640 0
M  V30 58 H 5.066719 -1.817148 -0.149275 0
M  V30 59 H 3.372788 0.181225 3.176836 0
M  V30 60 H 5.335687 -3.822786 1.199612 0
M  V30 61 H 3.641615 -1.818969 4.518859 0
M  V30 62 H 5.225674 4.366124 -3.451808 0
M  V30 63 H 4.916386 2.908225 -4.461269 0
M  V30 64 H 3.776939 4.303165 -4.518859 0
M  V30 65 H 4.619062 -3.836731 3.538747 0
M  V30 END ATOM
M  V30 BEGIN BOND
M  V30 1 2 1 16
M  V30 2 1 2 17
M  V30 3 1 2 34
M  V30 4 2 3 17
M  V30 5 1 4 22
M  V30 6 1 4 25
M  V30 7 2 5 22
M  V30 8 1 9 6
M  V30 9 1 11 6
M  V30 10 1 6 16
M  V30 11 1 18 7
M  V30 12 1 20 7
M  V30 13 1 7 35
M  V30 14 1 8 9
M  V30 15 1 8 10
M  V30 16 1 12 8
M  V30 17 1 8 32
M  V30 18 1 9 13
M  V30 19 1 9 33
M  V30 20 1 10 11
M  V30 21 1 10 36
M  V30 22 1 10 37
M  V30 23 1 11 17
M  V30 24 1 11 38
M  V30 25 1 14 12
M  V30 26 1 12 39
M  V30 27 1 12 40
M  V30 28 1 15 13
M  V30 29 1 13 41
M  V30 30 1 13 42
M  V30 31 1 15 14
M  V30 32 1 14 43
M  V30 33 1 14 44
M  V30 34 1 15 45
M  V30 35 1 15 46
M  V30 36 1 16 18
M  V30 37 1 18 19
M  V30 38 1 18 47
M  V30 39 1 19 48
M  V30 40 1 19 49
M  V30 41 1 19 50
M  V30 42 1 20 21
M  V30 43 1 20 22
M  V30 44 1 20 51
M  V30 45 1 21 23
M  V30 46 1 21 52
M  V30 47 1 21 53
M  V30 48 1 23 24
M  V30 49 1 23 54
M  V30 50 1 23 55
M  V30 51 1 24 26
M  V30 52 2 24 27
M  V30 53 1 25 30
M  V30 54 1 25 56
M  V30 55 1 25 57
M  V30 56 2 26 28
M  V30 57 1 26 58
M  V30 58 1 29 27
M  V30 59 1 27 59
M  V30 60 1 28 31
M  V30 61 1 28 60
M  V30 62 2 31 29
M  V30 63 1 29 61
M  V30 64 1 30 62
M  V30 65 1 30 63
M  V30 66 1 30 64
M  V30 67 1 31 65
M  V30 END BOND
M  V30 END CTAB
M  END
