


 35 36  0  0001  0  0  0  0  0999 V2000
   11.2719   -6.9940    0.0000 F   0  0  0  0  0  0  0  0  0  0  0
   10.1448   -8.9904    0.0000 F   0  0  0  0  0  0  0  0  0  0  0
   11.2855   -8.3114    0.0000 F   0  0  0  0  0  0  0  0  0  0  0
    0.3938   -4.7261    0.0000 O   0  0  0  0  0  0  0  0  0  0  0
    0.2716    0.0000    0.0000 O   0  0  0  0  0  0  0  0  0  0  0
    7.8496   -3.6668    0.0000 O   0  0  0  0  0  0  0  0  0  0  0
    5.5273   -4.9977    0.0000 O   0  0  0  0  0  0  0  0  0  0  0
   11.3127   -1.0050    0.0000 O   0  0  0  0  0  0  0  0  0  0  0
   10.1855   -3.0013    0.0000 O   0  0  0  0  0  0  0  0  0  0  0
    2.0643   -3.0013    0.0000 C   0  0  0  0  0  0  0  0  0  0  0
    2.0643   -1.6704    0.0000 C   0  0  0  0  0  0  0  0  0  0  0
    0.8013   -3.3952    0.0000 C   0  0  0  0  0  0  0  0  0  0  0
    0.7334   -1.2630    0.0000 C   0  0  0  0  0  0  0  0  0  0  0
    0.0000   -2.3359    0.0000 C   0  0  0  0  0  0  0  0  0  0  0
    8.9904   -6.9940    0.0000 C   0  0  0  0  0  0  0  0  0  0  0
   10.1448   -7.6595    0.0000 C   0  0  0  0  0  0  0  0  0  0  0
    3.1915   -3.6668    0.0000 C   0  0  0  0  0  0  0  0  0  0  0
    3.1915   -1.0050    0.0000 C   0  0  0  0  0  0  0  0  0  0  0
    7.8496   -4.9977    0.0000 C   0  0  0  0  0  0  0  0  0  0  0
    8.9904   -5.6631    0.0000 C   0  0  0  0  0  0  0  0  0  0  0
    7.8496   -7.6595    0.0000 C   0  0  0  0  0  0  0  0  0  0  0
    4.3322   -3.0013    0.0000 C   0  0  0  0  0  0  0  0  0  0  0
    6.6545   -5.6631    0.0000 C   0  0  0  0  0  0  0  0  0  0  0
    5.5273   -3.6668    0.0000 C   0  0  0  0  0  0  0  0  0  0  0
    6.6545   -6.9940    0.0000 C   0  0  0  0  0  0  0  0  0  0  0
    4.3322   -1.6704    0.0000 C   0  0  0  0  0  0  0  0  0  0  0
    6.6545   -3.0013    0.0000 C   0  0  0  0  0  0  0  0  0  0  0
    5.6631   -1.6704    0.0000 C   0  0  0  0  0  0  0  0  0  0  0
    6.7903   -1.0050    0.0000 C   0  0  0  0  0  0  0  0  0  0  0
    7.9175   -1.6704    0.0000 C   0  0  0  0  0  0  0  0  0  0  0
    9.0583   -1.0050    0.0000 C   0  0  0  0  0  0  0  0  0  0  0
   10.1855   -1.6704    0.0000 C   0  0  0  0  0  0  0  0  0  0  0
   12.4535   -1.6704    0.0000 C   0  0  0  0  0  0  0  0  0  0  0
   13.5807   -1.0050    0.0000 C   0  0  0  0  0  0  0  0  0  0  0
   12.4535   -3.0013    0.0000 C   0  0  0  0  0  0  0  0  0  0  0
  1 16  1  0
  2 16  1  0
  3 16  1  0
 12  4  1  6
 13  5  1  6
  6 19  1  0
  6 27  1  0
 24  7  1  6
  8 32  1  0
  8 33  1  0
  9 32  2  0
 10 11  1  0
 10 12  1  0
 10 17  1  1
 11 13  1  0
 11 18  1  6
 12 14  1  0
 13 14  1  0
 15 16  1  0
 15 20  1  0
 15 21  2  0
 17 22  2  0
 18 26  1  0
 19 20  2  0
 19 23  1  0
 21 25  1  0
 22 24  1  0
 23 25  2  0
 24 27  1  0
 26 28  2  0
 28 29  1  0
 29 30  1  0
 30 31  1  0
 31 32  1  0
 33 34  1  0
 33 35  1  0
M  END

> <StdInChI>
InChI=1S/C26H35F3O6/c1-17(2)35-25(33)11-6-4-3-5-10-21-22(24(32)15-23(21)31)13-12-19(30)16-34-20-9-7-8-18(14-20)26(27,28)29/h3,5,7-9,12-14,17,19,21-24,30-32H,4,6,10-11,15-16H2,1-2H3/b5-3-,13-12+/t19-,21-,22-,23+,24-/m1/s1

> <StdInChIKey>
MKPLKVHSHYCHOC-AHTXBMBWSA-N

> <AuxInfo>
1/0/N:34,35,28,29,26,30,25,21,23,18,31,22,17,20,14,27,33,15,24,19,11,10,13,12,32,16,1,2,3,7,5,4,9,6,8/E:(1,2)(27,28,29)/it:im/rA:35cFFFOOOOOOCCCCCCCCCCCCCCCCCCCCCCCCCC/rB:;;;;;;;;;s10;n4s10;n5s11;s12s13;;s1s2s3s15;P10;N11;s6;s15d19;d15;d17;s19;n7s22;s21d23;s18;s6s24;d26;s28;s29;s30;s8d9s31;s8;s33;s33;/rC:11.2719,-6.994,0;10.1448,-8.9904,0;11.2855,-8.3114,0;.3938,-4.7261,0;.2716,0,0;7.8496,-3.6668,0;5.5273,-4.9977,0;11.3127,-1.005,0;10.1855,-3.0013,0;2.0643,-3.0013,0;2.0643,-1.6704,0;.8013,-3.3952,0;.7334,-1.263,0;0,-2.3359,0;8.9904,-6.994,0;10.1448,-7.6595,0;3.1915,-3.6668,0;3.1915,-1.005,0;7.8496,-4.9977,0;8.9904,-5.6631,0;7.8496,-7.6595,0;4.3322,-3.0013,0;6.6545,-5.6631,0;5.5273,-3.6668,0;6.6545,-6.994,0;4.3322,-1.6704,0;6.6545,-3.0013,0;5.6631,-1.6704,0;6.7903,-1.005,0;7.9175,-1.6704,0;9.0583,-1.005,0;10.1855,-1.6704,0;12.4535,-1.6704,0;13.5807,-1.005,0;12.4535,-3.0013,0;

> <Formula>
C26 H35 F3 O6

> <Mw>
500.5477

> <SMILES>
FC(C1=CC=CC(=C1)OC[C@@H](/C=C/[C@H]1[C@@H](C[C@@H]([C@@H]1C/C=C\CCCC(=O)OC(C)C)O)O)O)(F)F

> <CSID>
4445407

$$$$
