
  Chem3D Core 14.010291512253D

  0  0  0     0  0              0 V3000
M  V30 BEGIN CTAB
M  V30 COUNTS 48 51 0 0 0
M  V30 BEGIN ATOM
M  V30 1 Cl 1.558905 0.231681 -6.894558 0
M  V30 2 O -1.897529 -2.475967 5.396737 0
M  V30 3 N 2.223107 -0.769035 0.362903 0
M  V30 4 N 3.295131 -0.253644 -2.238473 0
M  V30 5 N -1.321866 -0.858328 3.883294 0
M  V30 6 N -2.875295 -0.472997 5.279495 0
M  V30 7 N -1.802318 0.389741 3.679283 0
M  V30 8 C 3.304425 -1.577402 -0.194343 0
M  V30 9 C 1.401432 -0.190823 -0.694436 0
M  V30 10 C 4.188218 -0.778860 -1.167176 0
M  V30 11 C 2.233247 0.636766 -1.690312 0
M  V30 12 C 1.441905 -1.562415 1.310572 0
M  V30 13 C 0.348273 -0.772996 2.055029 0
M  V30 14 C -0.270044 -1.591577 3.201320 0
M  V30 15 C 3.405809 -0.562161 -3.480037 0
M  V30 16 C 2.570991 -0.096879 -4.439067 0
M  V30 17 C 4.363917 -1.391489 -3.955000 0
M  V30 18 C -2.045987 -1.373397 4.927543 0
M  V30 19 C -2.719452 0.555804 4.537220 0
M  V30 20 C 2.674993 -0.413899 -5.741420 0
M  V30 21 C 4.490893 -1.724629 -5.249767 0
M  V30 22 C 3.643563 -1.236214 -6.162321 0
M  V30 23 C -3.748394 -0.507423 6.204331 0
M  V30 24 C -3.467931 1.657656 4.691553 0
M  V30 25 C -4.538451 0.556528 6.423139 0
M  V30 26 C -4.398583 1.652768 5.659373 0
M  V30 27 H 3.955991 -1.961732 0.627878 0
M  V30 28 H 2.894066 -2.465745 -0.732475 0
M  V30 29 H 0.636303 0.496201 -0.262449 0
M  V30 30 H 0.858723 -0.991884 -1.251215 0
M  V30 31 H 4.644186 0.085725 -0.628919 0
M  V30 32 H 5.050138 -1.400783 -1.474697 0
M  V30 33 H 1.555027 1.132681 -2.410352 0
M  V30 34 H 2.725995 1.478975 -1.148478 0
M  V30 35 H 2.130627 -1.973993 2.088114 0
M  V30 36 H 0.972583 -2.436515 0.799110 0
M  V30 37 H -0.472861 -0.494803 1.353001 0
M  V30 38 H 0.787918 0.167682 2.465246 0
M  V30 39 H 0.521812 -1.857415 3.940697 0
M  V30 40 H -0.693777 -2.538663 2.791147 0
M  V30 41 H 1.736403 0.579605 -4.216252 0
M  V30 42 H 5.122056 -1.867774 -3.319346 0
M  V30 43 H 5.295750 -2.407564 -5.573080 0
M  V30 44 H 3.750618 -1.513539 -7.223847 0
M  V30 45 H -3.833236 -1.423373 6.809115 0
M  V30 46 H -3.324798 2.538663 4.045655 0
M  V30 47 H -5.295750 0.529026 7.223847 0
M  V30 48 H -5.038058 2.535409 5.824167 0
M  V30 END ATOM
M  V30 BEGIN BOND
M  V30 1 1 1 20
M  V30 2 2 2 18
M  V30 3 1 3 8
M  V30 4 1 3 9
M  V30 5 1 3 12
M  V30 6 1 10 4
M  V30 7 1 4 11
M  V30 8 1 4 15
M  V30 9 1 5 7
M  V30 10 1 5 14
M  V30 11 1 5 18
M  V30 12 1 6 18
M  V30 13 1 19 6
M  V30 14 1 23 6
M  V30 15 2 7 19
M  V30 16 1 8 10
M  V30 17 1 8 27
M  V30 18 1 8 28
M  V30 19 1 11 9
M  V30 20 1 9 29
M  V30 21 1 9 30
M  V30 22 1 10 31
M  V30 23 1 10 32
M  V30 24 1 11 33
M  V30 25 1 11 34
M  V30 26 1 12 13
M  V30 27 1 12 35
M  V30 28 1 12 36
M  V30 29 1 13 14
M  V30 30 1 13 37
M  V30 31 1 13 38
M  V30 32 1 14 39
M  V30 33 1 14 40
M  V30 34 1 15 16
M  V30 35 2 15 17
M  V30 36 2 16 20
M  V30 37 1 16 41
M  V30 38 1 21 17
M  V30 39 1 17 42
M  V30 40 1 19 24
M  V30 41 1 20 22
M  V30 42 2 22 21
M  V30 43 1 21 43
M  V30 44 1 22 44
M  V30 45 2 25 23
M  V30 46 1 23 45
M  V30 47 2 24 26
M  V30 48 1 24 46
M  V30 49 1 26 25
M  V30 50 1 25 47
M  V30 51 1 26 48
M  V30 END BOND
M  V30 END CTAB
M  END
