
  Chem3D Core 14.010291512283D

  0  0  0     0  0              0 V3000
M  V30 BEGIN CTAB
M  V30 COUNTS 62 64 0 0 0
M  V30 BEGIN ATOM
M  V30 1 C 3.401151 -0.727184 0.043272 0
M  V30 2 C 4.373113 0.192613 0.139346 0
M  V30 3 C 5.606053 -0.102916 -0.290445 0
M  V30 4 C 5.860132 -1.311059 -0.813980 0
M  V30 5 C 4.906714 -2.257681 -0.934380 0
M  V30 6 C 3.671266 -1.934876 -0.489252 0
M  V30 7 C 2.518335 -2.916383 -0.556149 0
M  V30 8 C 1.262521 -2.241311 -1.127982 0
M  V30 9 C 1.011530 -0.803298 -0.614787 0
M  V30 10 C 1.991726 -0.437560 0.509874 0
M  V30 11 C -0.477839 -0.736863 -0.213472 0
M  V30 12 C -0.027665 -3.018843 -0.825279 0
M  V30 13 C -1.097503 -1.940333 -0.929398 0
M  V30 14 O 5.121586 -3.511736 -1.454649 0
M  V30 15 C 6.429533 -3.900536 -1.822568 0
M  V30 16 C 6.454620 -5.339659 -2.321465 0
M  V30 17 C -1.214662 0.566442 -0.568935 0
M  V30 18 C -0.658673 1.811457 0.138924 0
M  V30 19 C -1.473281 3.090700 -0.080803 0
M  V30 20 C -2.866611 3.057496 0.551044 0
M  V30 21 C -3.581578 4.418138 0.487581 0
M  V30 22 C -4.964250 4.371036 1.158858 0
M  V30 23 C -5.680511 5.729629 1.098809 0
M  V30 24 C -7.058106 5.678645 1.772926 0
M  V30 25 O 7.720795 -5.752633 -2.529360 0
M  V30 26 O 5.514087 -6.069044 -2.528314 0
M  V30 27 O -2.293455 -2.348114 -0.314155 0
M  V30 28 O -1.585977 3.340419 -1.462093 0
M  V30 29 H 1.184962 -0.096164 -1.464558 0
M  V30 30 H 1.378549 -2.184841 -2.241338 0
M  V30 31 H 4.167363 1.186431 0.568776 0
M  V30 32 H 6.409897 0.648540 -0.210953 0
M  V30 33 H 6.893893 -1.495081 -1.146241 0
M  V30 34 H 2.334255 -3.273434 0.484056 0
M  V30 35 H 2.743316 -3.823692 -1.160827 0
M  V30 36 H 1.872142 0.628437 0.803555 0
M  V30 37 H 1.789314 -1.044331 1.422659 0
M  V30 38 H -0.557228 -0.912826 0.887386 0
M  V30 39 H -0.195727 -3.868745 -1.524498 0
M  V30 40 H -0.007044 -3.415328 0.216803 0
M  V30 41 H -1.317379 -1.712648 -1.997100 0
M  V30 42 H 6.789886 -3.248485 -2.651544 0
M  V30 43 H 7.094640 -3.831182 -0.930622 0
M  V30 44 H -2.285269 0.431504 -0.289288 0
M  V30 45 H -1.184510 0.722664 -1.672602 0
M  V30 46 H 0.376456 1.999020 -0.233572 0
M  V30 47 H -0.582350 1.613510 1.234256 0
M  V30 48 H -0.904604 3.950250 0.349051 0
M  V30 49 H -3.500527 2.295702 0.041117 0
M  V30 50 H -2.772182 2.750323 1.619808 0
M  V30 51 H -2.954611 5.191158 0.992180 0
M  V30 52 H -3.702161 4.728651 -0.577150 0
M  V30 53 H -5.594227 3.599528 0.655547 0
M  V30 54 H -4.847998 4.063187 2.225240 0
M  V30 55 H -5.054407 6.505066 1.601722 0
M  V30 56 H -5.804027 6.040544 0.033787 0
M  V30 57 H -7.565143 6.669723 1.721532 0
M  V30 58 H -7.720795 4.932971 1.277098 0
M  V30 59 H -6.969449 5.398925 2.847611 0
M  V30 60 H 7.694845 -6.669723 -2.847611 0
M  V30 61 H -2.984867 -1.714048 -0.519357 0
M  V30 62 H -1.860307 4.249553 -1.603130 0
M  V30 END ATOM
M  V30 BEGIN BOND
M  V30 1 1 2 1
M  V30 2 2 6 1
M  V30 3 1 1 10
M  V30 4 2 3 2
M  V30 5 1 2 31
M  V30 6 1 4 3
M  V30 7 1 3 32
M  V30 8 2 5 4
M  V30 9 1 4 33
M  V30 10 1 6 5
M  V30 11 1 5 14
M  V30 12 1 7 6
M  V30 13 1 8 7
M  V30 14 1 7 34
M  V30 15 1 7 35
M  V30 16 1 9 8
M  V30 17 1 12 8
M  V30 18 1 8 30
M  V30 19 1 9 10
M  V30 20 1 11 9
M  V30 21 1 9 29
M  V30 22 1 10 36
M  V30 23 1 10 37
M  V30 24 1 13 11
M  V30 25 1 11 17
M  V30 26 1 11 38
M  V30 27 1 12 13
M  V30 28 1 12 39
M  V30 29 1 12 40
M  V30 30 1 13 27
M  V30 31 1 13 41
M  V30 32 1 14 15
M  V30 33 1 15 16
M  V30 34 1 15 42
M  V30 35 1 15 43
M  V30 36 1 16 25
M  V30 37 2 16 26
M  V30 38 1 17 18
M  V30 39 1 17 44
M  V30 40 1 17 45
M  V30 41 1 18 19
M  V30 42 1 18 46
M  V30 43 1 18 47
M  V30 44 1 19 20
M  V30 45 1 19 28
M  V30 46 1 19 48
M  V30 47 1 20 21
M  V30 48 1 20 49
M  V30 49 1 20 50
M  V30 50 1 21 22
M  V30 51 1 21 51
M  V30 52 1 21 52
M  V30 53 1 22 23
M  V30 54 1 22 53
M  V30 55 1 22 54
M  V30 56 1 23 24
M  V30 57 1 23 55
M  V30 58 1 23 56
M  V30 59 1 24 57
M  V30 60 1 24 58
M  V30 61 1 24 59
M  V30 62 1 25 60
M  V30 63 1 27 61
M  V30 64 1 28 62
M  V30 END BOND
M  V30 END CTAB
M  END
