
  Chem3D Core 14.010291512333D

  0  0  0     0  0              0 V3000
M  V30 BEGIN CTAB
M  V30 COUNTS 50 50 0 0 0
M  V30 BEGIN ATOM
M  V30 1 O 7.213549 0.168165 -1.737000 0
M  V30 2 O 6.825618 2.334050 -1.904072 0
M  V30 3 C -3.853160 -2.076999 0.484137 0
M  V30 4 C -5.346750 -1.965295 0.894458 0
M  V30 5 C -6.128083 -1.027872 -0.018841 0
M  V30 6 C -3.229770 -0.698349 0.170396 0
M  V30 7 C -5.540492 0.365771 0.175345 0
M  V30 8 C -4.028037 0.399867 0.105623 0
M  V30 9 C -3.201419 -2.753551 1.718637 0
M  V30 10 C -3.777225 -3.005383 -0.750190 0
M  V30 11 C -1.908423 -0.520570 -0.080357 0
M  V30 12 C -3.545379 1.832594 -0.064943 0
M  V30 13 C -0.901775 -1.412179 -0.147177 0
M  V30 14 C 0.413127 -1.215992 -0.402761 0
M  V30 15 C 1.304606 -2.451575 -0.423223 0
M  V30 16 C 0.964258 -0.002748 -0.630977 0
M  V30 17 C 2.266249 0.237205 -0.886009 0
M  V30 18 C 2.750734 1.475890 -1.103481 0
M  V30 19 C 4.018372 1.868937 -1.366675 0
M  V30 20 C 4.239028 3.360619 -1.566012 0
M  V30 21 C 5.042573 0.991769 -1.449624 0
M  V30 22 C 6.361311 1.229234 -1.704063 0
M  V30 23 H 6.727261 -0.653492 -1.563780 0
M  V30 24 H -5.834558 -2.968366 0.905827 0
M  V30 25 H -5.435467 -1.569899 1.935000 0
M  V30 26 H -7.213549 -1.028462 0.241237 0
M  V30 27 H -6.049068 -1.347679 -1.082602 0
M  V30 28 H -5.851160 0.781087 1.163499 0
M  V30 29 H -5.967428 1.026237 -0.617320 0
M  V30 30 H -3.178642 -2.058321 2.588798 0
M  V30 31 H -3.770516 -3.659856 2.027564 0
M  V30 32 H -2.166588 -3.118302 1.576678 0
M  V30 33 H -2.744101 -3.277872 -1.046156 0
M  V30 34 H -4.299470 -3.971175 -0.566191 0
M  V30 35 H -4.240302 -2.537130 -1.646428 0
M  V30 36 H -1.590390 0.504108 -0.297733 0
M  V30 37 H -2.645386 2.074435 0.541638 0
M  V30 38 H -3.357428 2.054319 -1.140194 0
M  V30 39 H -4.303657 2.563710 0.294994 0
M  V30 40 H -1.159648 -2.462769 0.015804 0
M  V30 41 H 0.767732 -3.404999 -0.223723 0
M  V30 42 H 1.780204 -2.577982 -1.422549 0
M  V30 43 H 2.094031 -2.381648 0.359537 0
M  V30 44 H 0.322929 0.890985 -0.612223 0
M  V30 45 H 2.950864 -0.619636 -0.914718 0
M  V30 46 H 2.002842 2.287977 -1.059749 0
M  V30 47 H 3.314159 3.971175 -1.471898 0
M  V30 48 H 4.936702 3.764071 -0.797452 0
M  V30 49 H 4.626379 3.570550 -2.588798 0
M  V30 50 H 4.860499 -0.084453 -1.301494 0
M  V30 END ATOM
M  V30 BEGIN BOND
M  V30 1 1 1 22
M  V30 2 1 1 23
M  V30 3 2 2 22
M  V30 4 1 4 3
M  V30 5 1 6 3
M  V30 6 1 3 9
M  V30 7 1 3 10
M  V30 8 1 5 4
M  V30 9 1 4 24
M  V30 10 1 4 25
M  V30 11 1 7 5
M  V30 12 1 5 26
M  V30 13 1 5 27
M  V30 14 2 6 8
M  V30 15 1 6 11
M  V30 16 1 8 7
M  V30 17 1 7 28
M  V30 18 1 7 29
M  V30 19 1 8 12
M  V30 20 1 9 30
M  V30 21 1 9 31
M  V30 22 1 9 32
M  V30 23 1 10 33
M  V30 24 1 10 34
M  V30 25 1 10 35
M  V30 26 2 11 13
M  V30 27 1 11 36
M  V30 28 1 12 37
M  V30 29 1 12 38
M  V30 30 1 12 39
M  V30 31 1 13 14
M  V30 32 1 13 40
M  V30 33 1 14 15
M  V30 34 2 14 16
M  V30 35 1 15 41
M  V30 36 1 15 42
M  V30 37 1 15 43
M  V30 38 1 16 17
M  V30 39 1 16 44
M  V30 40 2 17 18
M  V30 41 1 17 45
M  V30 42 1 18 19
M  V30 43 1 18 46
M  V30 44 1 19 20
M  V30 45 2 19 21
M  V30 46 1 20 47
M  V30 47 1 20 48
M  V30 48 1 20 49
M  V30 49 1 21 22
M  V30 50 1 21 50
M  V30 END BOND
M  V30 END CTAB
M  END
