
  Chem3D Core 14.010291512343D

  0  0  0     0  0              0 V3000
M  V30 BEGIN CTAB
M  V30 COUNTS 35 38 0 0 0
M  V30 BEGIN ATOM
M  V30 1 Cl 3.037065 3.254546 -0.684933 0
M  V30 2 Cl 0.365995 -3.362046 -2.490840 0
M  V30 3 N -2.215929 1.075516 0.140055 0
M  V30 4 N -0.954891 -1.404534 -1.038777 0
M  V30 5 N -3.984566 -0.095887 -0.092950 0
M  V30 6 N -4.255673 0.845186 0.681468 0
M  V30 7 C -1.000018 1.443929 -0.042984 0
M  V30 8 C 0.026805 0.665951 -0.506783 0
M  V30 9 C -2.770514 0.069499 -0.398554 0
M  V30 10 C 0.044072 -0.675271 -0.772741 0
M  V30 11 C -2.216072 -0.819368 -1.454170 0
M  V30 12 C -3.207612 1.548305 0.799495 0
M  V30 13 C -0.686090 2.708664 0.321498 0
M  V30 14 C 1.158273 -1.463798 -0.641309 0
M  V30 15 C 1.214613 1.288093 -0.715707 0
M  V30 16 C 0.514779 3.280121 0.170955 0
M  V30 17 C 1.483563 2.558393 -0.391798 0
M  V30 18 C -3.393939 2.717560 1.739669 0
M  V30 19 C 1.378817 -2.656750 -1.259298 0
M  V30 20 C 2.123288 -1.105379 0.240936 0
M  V30 21 C 2.492117 -3.380627 -1.033136 0
M  V30 22 C 3.231265 -1.822072 0.481003 0
M  V30 23 C 3.426374 -2.975491 -0.165041 0
M  V30 24 H -2.924620 -1.643785 -1.703450 0
M  V30 25 H -2.072075 -0.232783 -2.391919 0
M  V30 26 H -1.425649 3.411895 0.718397 0
M  V30 27 H 2.050550 0.768688 -1.216953 0
M  V30 28 H 0.681241 4.331955 0.458942 0
M  V30 29 H -4.329011 2.625403 2.338085 0
M  V30 30 H -2.573654 2.768821 2.490840 0
M  V30 31 H -3.487529 3.676958 1.182583 0
M  V30 32 H 2.020110 -0.222313 0.895017 0
M  V30 33 H 2.676320 -4.331955 -1.562993 0
M  V30 34 H 3.968420 -1.483403 1.228932 0
M  V30 35 H 4.329011 -3.580325 0.021718 0
M  V30 END ATOM
M  V30 BEGIN BOND
M  V30 1 1 1 17
M  V30 2 1 2 19
M  V30 3 1 7 3
M  V30 4 1 9 3
M  V30 5 1 12 3
M  V30 6 2 10 4
M  V30 7 1 4 11
M  V30 8 1 5 6
M  V30 9 2 9 5
M  V30 10 2 6 12
M  V30 11 2 7 8
M  V30 12 1 13 7
M  V30 13 1 8 10
M  V30 14 1 8 15
M  V30 15 1 11 9
M  V30 16 1 10 14
M  V30 17 1 11 24
M  V30 18 1 11 25
M  V30 19 1 12 18
M  V30 20 2 16 13
M  V30 21 1 13 26
M  V30 22 1 14 19
M  V30 23 2 14 20
M  V30 24 2 17 15
M  V30 25 1 15 27
M  V30 26 1 17 16
M  V30 27 1 16 28
M  V30 28 1 18 29
M  V30 29 1 18 30
M  V30 30 1 18 31
M  V30 31 2 19 21
M  V30 32 1 22 20
M  V30 33 1 20 32
M  V30 34 1 21 23
M  V30 35 1 21 33
M  V30 36 2 23 22
M  V30 37 1 22 34
M  V30 38 1 23 35
M  V30 END BOND
M  V30 END CTAB
M  END
