
  Chem3D Core 14.010291512363D

  0  0  0     0  0              0 V3000
M  V30 BEGIN CTAB
M  V30 COUNTS 24 25 0 0 0
M  V30 BEGIN ATOM
M  V30 1 O 1.009592 0.189213 1.365183 0
M  V30 2 C 0.359028 -0.997995 1.142510 0
M  V30 3 C 0.531826 1.267639 0.664819 0
M  V30 4 C 1.012797 -2.115216 0.758052 0
M  V30 5 C 0.464885 1.270046 -0.684713 0
M  V30 6 C 0.362516 -3.271123 0.539811 0
M  V30 7 C -0.003545 2.356476 -1.324038 0
M  V30 8 C -0.973962 -1.100995 1.314507 0
M  V30 9 C 0.122516 2.368707 1.323862 0
M  V30 10 C -0.966985 -3.339196 0.707158 0
M  V30 11 C -0.410263 3.443744 -0.652633 0
M  V30 12 Cl 2.729933 -2.094469 0.532670 0
M  V30 13 O 0.865520 0.189035 -1.408362 0
M  V30 14 C -1.637756 -2.246903 1.100287 0
M  V30 15 C -0.347157 3.450398 0.685899 0
M  V30 16 Cl -1.808663 -4.821254 0.427917 0
M  V30 17 Cl -1.009310 4.821254 -1.503802 0
M  V30 18 H 0.918729 -4.169781 0.223236 0
M  V30 19 H -0.050803 2.339882 -2.426041 0
M  V30 20 H -1.547362 -0.216725 1.641336 0
M  V30 21 H 0.174124 2.383519 2.426041 0
M  V30 22 H 0.791435 0.379939 -2.356432 0
M  V30 23 H -2.729933 -2.277938 1.251343 0
M  V30 24 H -0.672917 4.329372 1.266732 0
M  V30 END ATOM
M  V30 BEGIN BOND
M  V30 1 1 2 1
M  V30 2 1 3 1
M  V30 3 1 2 4
M  V30 4 2 2 8
M  V30 5 1 3 5
M  V30 6 2 3 9
M  V30 7 2 4 6
M  V30 8 1 12 4
M  V30 9 2 5 7
M  V30 10 1 13 5
M  V30 11 1 6 10
M  V30 12 1 6 18
M  V30 13 1 7 11
M  V30 14 1 7 19
M  V30 15 1 14 8
M  V30 16 1 8 20
M  V30 17 1 15 9
M  V30 18 1 9 21
M  V30 19 2 10 14
M  V30 20 1 16 10
M  V30 21 2 11 15
M  V30 22 1 17 11
M  V30 23 1 13 22
M  V30 24 1 14 23
M  V30 25 1 15 24
M  V30 END BOND
M  V30 END CTAB
M  END
