
  Chem3D Core 14.010291512423D

  0  0  0     0  0              0 V3000
M  V30 BEGIN CTAB
M  V30 COUNTS 43 45 0 0 0
M  V30 BEGIN ATOM
M  V30 1 S 0.065588 4.208301 1.323004 0
M  V30 2 F -3.494717 -1.239541 0.344414 0
M  V30 3 F -5.079801 0.183495 0.494144 0
M  V30 4 F -4.245729 -0.680744 2.257176 0
M  V30 5 N 0.648877 1.228613 1.527949 0
M  V30 6 N 1.735476 -3.272874 -0.529809 0
M  V30 7 C 0.931126 -0.245630 1.738357 0
M  V30 8 C 1.151048 -1.014284 0.422719 0
M  V30 9 C -0.602674 1.512133 1.393147 0
M  V30 10 C 1.702480 1.973093 1.535325 0
M  V30 11 C 1.345768 -2.522866 0.661355 0
M  V30 12 C -1.040103 2.783520 1.274463 0
M  V30 13 C 1.631994 3.319483 1.440868 0
M  V30 14 C -1.610770 0.607096 1.317166 0
M  V30 15 C 2.980645 1.522770 1.602314 0
M  V30 16 C -2.920953 0.889184 1.182814 0
M  V30 17 C -2.331562 3.118591 1.116999 0
M  V30 18 C 2.700076 4.136943 1.440165 0
M  V30 19 C -3.277370 2.175275 1.063114 0
M  V30 20 C 4.068052 2.310833 1.603251 0
M  V30 21 C 1.994682 -4.665423 -0.187744 0
M  V30 22 C 0.740534 -3.194866 -1.589552 0
M  V30 23 C 3.937731 3.638454 1.525853 0
M  V30 24 C -3.948319 -0.216232 1.052949 0
M  V30 25 H 1.750436 -0.433777 2.463357 0
M  V30 26 H 0.172591 -0.742468 2.379493 0
M  V30 27 H 0.272028 -0.839657 -0.238556 0
M  V30 28 H 2.040049 -0.607025 -0.112765 0
M  V30 29 H 2.146282 -2.631524 1.433103 0
M  V30 30 H 0.410117 -2.943858 1.101093 0
M  V30 31 H -1.437646 -0.476368 1.338767 0
M  V30 32 H 3.259420 0.459682 1.633258 0
M  V30 33 H -2.646049 4.172369 1.021450 0
M  V30 34 H 2.590284 5.232860 1.368665 0
M  V30 35 H -4.329667 2.467810 0.918911 0
M  V30 36 H 5.079801 1.872031 1.654731 0
M  V30 37 H 2.359417 -5.232860 -1.074551 0
M  V30 38 H 2.793916 -4.746284 0.584282 0
M  V30 39 H 1.082022 -5.173974 0.199536 0
M  V30 40 H 1.038889 -3.818243 -2.463357 0
M  V30 41 H 0.645433 -2.159581 -1.985153 0
M  V30 42 H -0.260825 -3.539537 -1.243653 0
M  V30 43 H 4.821011 4.297786 1.521423 0
M  V30 END ATOM
M  V30 BEGIN BOND
M  V30 1 1 12 1
M  V30 2 1 1 13
M  V30 3 1 2 24
M  V30 4 1 3 24
M  V30 5 1 4 24
M  V30 6 1 5 7
M  V30 7 1 5 9
M  V30 8 1 5 10
M  V30 9 1 6 11
M  V30 10 1 6 21
M  V30 11 1 6 22
M  V30 12 1 7 8
M  V30 13 1 7 25
M  V30 14 1 7 26
M  V30 15 1 8 11
M  V30 16 1 8 27
M  V30 17 1 8 28
M  V30 18 2 9 12
M  V30 19 1 9 14
M  V30 20 2 13 10
M  V30 21 1 15 10
M  V30 22 1 11 29
M  V30 23 1 11 30
M  V30 24 1 17 12
M  V30 25 1 13 18
M  V30 26 2 14 16
M  V30 27 1 14 31
M  V30 28 2 20 15
M  V30 29 1 15 32
M  V30 30 1 16 19
M  V30 31 1 16 24
M  V30 32 2 19 17
M  V30 33 1 17 33
M  V30 34 2 18 23
M  V30 35 1 18 34
M  V30 36 1 19 35
M  V30 37 1 23 20
M  V30 38 1 20 36
M  V30 39 1 21 37
M  V30 40 1 21 38
M  V30 41 1 21 39
M  V30 42 1 22 40
M  V30 43 1 22 41
M  V30 44 1 22 42
M  V30 45 1 23 43
M  V30 END BOND
M  V30 END CTAB
M  END
