
  Chem3D Core 14.010291512393D

  0  0  0     0  0              0 V3000
M  V30 BEGIN CTAB
M  V30 COUNTS 52 55 0 0 0
M  V30 BEGIN ATOM
M  V30 1 S -0.209645 4.927765 1.809192 0
M  V30 2 F -3.249997 -0.554442 -0.121198 0
M  V30 3 F -4.884598 0.350624 0.911380 0
M  V30 4 F -3.441847 -0.802666 1.984684 0
M  V30 5 N 2.624735 -2.315130 0.508141 0
M  V30 6 N 2.989055 -4.469794 -1.401498 0
M  V30 7 N 0.656143 2.036531 2.199442 0
M  V30 8 C 2.962359 -3.670034 0.925719 0
M  V30 9 C 1.875980 -2.369226 -0.739231 0
M  V30 10 C 1.909796 -1.616130 1.572989 0
M  V30 11 C 3.750914 -4.413269 -0.164552 0
M  V30 12 C 2.659279 -3.120269 -1.829928 0
M  V30 13 C 1.606085 -0.137994 1.267068 0
M  V30 14 C 1.057647 0.605906 2.498240 0
M  V30 15 C 3.712881 -5.192059 -2.436056 0
M  V30 16 C -0.571877 2.172980 1.827788 0
M  V30 17 C 1.599399 2.897687 2.381265 0
M  V30 18 C -1.120517 3.384746 1.598353 0
M  V30 19 C 1.396985 4.226325 2.238556 0
M  V30 20 C -1.440535 1.157448 1.593339 0
M  V30 21 C 2.884804 2.598276 2.695915 0
M  V30 22 C -2.718493 1.286412 1.188416 0
M  V30 23 C -2.395213 3.568766 1.215644 0
M  V30 24 C 2.347783 5.161555 2.412747 0
M  V30 25 C -3.205174 2.523196 1.020076 0
M  V30 26 C 3.857495 3.506593 2.875859 0
M  V30 27 C 3.595738 4.809791 2.739154 0
M  V30 28 C -3.594714 0.066702 0.996878 0
M  V30 29 H 3.586753 -3.642876 1.851585 0
M  V30 30 H 2.039733 -4.250560 1.168166 0
M  V30 31 H 1.679866 -1.341788 -1.126083 0
M  V30 32 H 0.886807 -2.862931 -0.584551 0
M  V30 33 H 2.536310 -1.635302 2.497834 0
M  V30 34 H 0.954193 -2.139198 1.816074 0
M  V30 35 H 4.730863 -3.902483 -0.323869 0
M  V30 36 H 3.972289 -5.447333 0.194941 0
M  V30 37 H 2.037034 -3.156468 -2.756867 0
M  V30 38 H 3.585035 -2.547014 -2.077702 0
M  V30 39 H 0.855328 -0.060421 0.448019 0
M  V30 40 H 2.532849 0.361942 0.900930 0
M  V30 41 H 1.742147 0.517714 3.367756 0
M  V30 42 H 0.253106 0.027610 2.999698 0
M  V30 43 H 3.105921 -5.262697 -3.367756 0
M  V30 44 H 3.925933 -6.237007 -2.113281 0
M  V30 45 H 4.680966 -4.701283 -2.687463 0
M  V30 46 H -1.158560 0.099853 1.678405 0
M  V30 47 H 3.270334 1.574703 2.807445 0
M  V30 48 H -2.808637 4.579763 1.056212 0
M  V30 49 H 2.130898 6.237007 2.292135 0
M  V30 50 H -4.248911 2.693162 0.711604 0
M  V30 51 H 4.884598 3.187823 3.125324 0
M  V30 52 H 4.384616 5.566642 2.879814 0
M  V30 END ATOM
M  V30 BEGIN BOND
M  V30 1 1 18 1
M  V30 2 1 1 19
M  V30 3 1 2 28
M  V30 4 1 3 28
M  V30 5 1 4 28
M  V30 6 1 5 8
M  V30 7 1 5 9
M  V30 8 1 5 10
M  V30 9 1 11 6
M  V30 10 1 6 12
M  V30 11 1 6 15
M  V30 12 1 7 14
M  V30 13 1 7 16
M  V30 14 1 7 17
M  V30 15 1 8 11
M  V30 16 1 8 29
M  V30 17 1 8 30
M  V30 18 1 12 9
M  V30 19 1 9 31
M  V30 20 1 9 32
M  V30 21 1 10 13
M  V30 22 1 10 33
M  V30 23 1 10 34
M  V30 24 1 11 35
M  V30 25 1 11 36
M  V30 26 1 12 37
M  V30 27 1 12 38
M  V30 28 1 13 14
M  V30 29 1 13 39
M  V30 30 1 13 40
M  V30 31 1 14 41
M  V30 32 1 14 42
M  V30 33 1 15 43
M  V30 34 1 15 44
M  V30 35 1 15 45
M  V30 36 2 16 18
M  V30 37 1 16 20
M  V30 38 2 19 17
M  V30 39 1 21 17
M  V30 40 1 23 18
M  V30 41 1 19 24
M  V30 42 2 20 22
M  V30 43 1 20 46
M  V30 44 2 26 21
M  V30 45 1 21 47
M  V30 46 1 22 25
M  V30 47 1 22 28
M  V30 48 2 25 23
M  V30 49 1 23 48
M  V30 50 2 24 27
M  V30 51 1 24 49
M  V30 52 1 25 50
M  V30 53 1 27 26
M  V30 54 1 26 51
M  V30 55 1 27 52
M  V30 END BOND
M  V30 END CTAB
M  END
