
  Chem3D Core 15.004011617493D

  0  0  0     0  0              0 V3000
M  V30 BEGIN CTAB
M  V30 COUNTS 39 40 0 0 0
M  V30 BEGIN ATOM
M  V30 1 C 0.157277 3.487357 -1.159253 0
M  V30 2 O 0.452889 2.144020 -0.862855 0
M  V30 3 C -0.491601 1.169769 -0.572775 0
M  V30 4 C 0.093036 0.003588 -0.240598 0
M  V30 5 C -0.588366 -1.089962 0.101734 0
M  V30 6 C 0.046890 -2.404164 0.511947 0
M  V30 7 C 1.557814 -2.432077 0.433569 0
M  V30 8 C 2.284909 -1.796044 1.367072 0
M  V30 9 N 3.546664 -1.766069 1.355274 0
M  V30 10 C 4.158391 -2.369346 0.422825 0
M  V30 11 N 3.540515 -2.998658 -0.489175 0
M  V30 12 C 2.274604 -3.051954 -0.522977 0
M  V30 13 N 1.702135 -3.686994 -1.460903 0
M  V30 14 N 5.427965 -2.338490 0.401330 0
M  V30 15 C -1.915359 -0.943615 0.073982 0
M  V30 16 C -2.599003 0.178784 -0.249504 0
M  V30 17 C -1.857577 1.284345 -0.581252 0
M  V30 18 O -2.240215 2.555597 -0.939227 0
M  V30 19 C -3.522108 3.095788 -1.039009 0
M  V30 20 O -3.949402 -0.109243 -0.150782 0
M  V30 21 C -5.046981 0.713051 -0.412675 0
M  V30 22 H 1.129580 4.011983 -1.302276 0
M  V30 23 H -0.393010 3.570735 -2.121845 0
M  V30 24 H -0.350499 3.982366 -0.302577 0
M  V30 25 H 1.194356 -0.037440 -0.247642 0
M  V30 26 H -0.246345 -2.607192 1.568878 0
M  V30 27 H -0.411651 -3.227270 -0.078684 0
M  V30 28 H 1.792219 -1.254671 2.190998 0
M  V30 29 H 2.285389 -4.164434 -2.190998 0
M  V30 30 H 0.661007 -3.757889 -1.542056 0
M  V30 31 H 5.956797 -2.828848 -0.361306 0
M  V30 32 H 5.957417 -1.819337 1.144336 0
M  V30 33 H -2.489358 -1.847408 0.353697 0
M  V30 34 H -3.395532 4.164434 -1.325609 0
M  V30 35 H -4.074956 2.639878 -1.884167 0
M  V30 36 H -4.016568 3.120029 -0.047347 0
M  V30 37 H -5.957417 0.093129 -0.242508 0
M  V30 38 H -5.121432 1.527128 0.334179 0
M  V30 39 H -5.089087 0.992311 -1.483475 0
M  V30 END ATOM
M  V30 BEGIN BOND
M  V30 1 1 1 2
M  V30 2 1 1 22
M  V30 3 1 1 23
M  V30 4 1 1 24
M  V30 5 1 2 3
M  V30 6 1 3 4
M  V30 7 2 3 17
M  V30 8 2 4 5
M  V30 9 1 4 25
M  V30 10 1 5 6
M  V30 11 1 5 15
M  V30 12 1 6 7
M  V30 13 1 6 26
M  V30 14 1 6 27
M  V30 15 2 7 8
M  V30 16 1 12 7
M  V30 17 1 8 9
M  V30 18 1 8 28
M  V30 19 2 9 10
M  V30 20 1 10 11
M  V30 21 1 10 14
M  V30 22 2 12 11
M  V30 23 1 12 13
M  V30 24 1 13 29
M  V30 25 1 13 30
M  V30 26 1 14 31
M  V30 27 1 14 32
M  V30 28 2 15 16
M  V30 29 1 15 33
M  V30 30 1 16 17
M  V30 31 1 16 20
M  V30 32 1 17 18
M  V30 33 1 18 19
M  V30 34 1 19 34
M  V30 35 1 19 35
M  V30 36 1 19 36
M  V30 37 1 20 21
M  V30 38 1 21 37
M  V30 39 1 21 38
M  V30 40 1 21 39
M  V30 END BOND
M  V30 END CTAB
M  END
