
  Chem3D Core 14.010291511253D

  0  0  0     0  0              0 V3000
M  V30 BEGIN CTAB
M  V30 COUNTS 50 52 0 0 0
M  V30 BEGIN ATOM
M  V30 1 O 2.785583 -4.174454 1.553052 0
M  V30 2 O -0.850688 -4.864507 -1.307235 0
M  V30 3 O 1.172392 -5.794964 0.171529 0
M  V30 4 N 0.308209 -0.528774 -0.127907 0
M  V30 5 N -1.323629 5.315232 -0.877878 0
M  V30 6 N -3.142858 4.964003 0.300527 0
M  V30 7 N -3.549599 3.258792 1.482749 0
M  V30 8 N -2.923715 6.810269 -0.859529 0
M  V30 9 C 0.302913 1.880033 0.186405 0
M  V30 10 C -0.925739 2.190789 0.670715 0
M  V30 11 C 1.028210 0.587175 0.518456 0
M  V30 12 C -1.514369 3.367175 0.324482 0
M  V30 13 C -0.850110 4.202470 -0.504819 0
M  V30 14 C 0.932193 2.733281 -0.637816 0
M  V30 15 C 0.363165 3.890382 -0.984022 0
M  V30 16 C -1.607582 1.194362 1.592052 0
M  V30 17 C 0.558398 -1.771642 -0.018762 0
M  V30 18 C -2.724642 3.838046 0.710710 0
M  V30 19 C -0.235846 -2.623575 -0.684456 0
M  V30 20 C 1.552570 -2.282762 0.722293 0
M  V30 21 C 1.775802 -3.608339 0.806209 0
M  V30 22 C -0.059383 -3.957629 -0.637376 0
M  V30 23 C 0.988551 -4.434025 0.076139 0
M  V30 24 C -2.461521 5.691693 -0.477256 0
M  V30 25 C 3.713582 -3.340917 2.208010 0
M  V30 26 C -1.856148 -4.396062 -2.175806 0
M  V30 27 C 2.040344 -6.323373 -0.806357 0
M  V30 28 H -0.507436 -0.274287 -0.739211 0
M  V30 29 H -3.415981 2.330359 1.935600 0
M  V30 30 H -4.458518 3.736712 1.702670 0
M  V30 31 H -3.867803 7.132679 -0.532997 0
M  V30 32 H -2.365179 7.421116 -1.505104 0
M  V30 33 H 1.099557 0.463132 1.622359 0
M  V30 34 H 2.076490 0.596971 0.140895 0
M  V30 35 H 1.928335 2.497123 -1.047401 0
M  V30 36 H 0.903964 4.572389 -1.663277 0
M  V30 37 H -1.769286 1.641405 2.598956 0
M  V30 38 H -2.556349 0.829809 1.137094 0
M  V30 39 H -1.048297 0.263200 1.805525 0
M  V30 40 H -1.058579 -2.197550 -1.280299 0
M  V30 41 H 2.198237 -1.588951 1.278544 0
M  V30 42 H 4.458518 -3.995608 2.713685 0
M  V30 43 H 4.254770 -2.707547 1.470021 0
M  V30 44 H 3.206129 -2.732516 2.989480 0
M  V30 45 H -2.342996 -5.283247 -2.639646 0
M  V30 46 H -2.632520 -3.837755 -1.606710 0
M  V30 47 H -1.410387 -3.781321 -2.989480 0
M  V30 48 H 2.120293 -7.421116 -0.642187 0
M  V30 49 H 1.631521 -6.136881 -1.824220 0
M  V30 50 H 3.050551 -5.867035 -0.710294 0
M  V30 END ATOM
M  V30 BEGIN BOND
M  V30 1 1 1 21
M  V30 2 1 1 25
M  V30 3 1 2 22
M  V30 4 1 2 26
M  V30 5 1 3 23
M  V30 6 1 3 27
M  V30 7 1 4 11
M  V30 8 1 4 17
M  V30 9 1 4 28
M  V30 10 2 13 5
M  V30 11 1 5 24
M  V30 12 1 6 18
M  V30 13 2 24 6
M  V30 14 1 7 18
M  V30 15 1 7 29
M  V30 16 1 7 30
M  V30 17 1 8 24
M  V30 18 1 8 31
M  V30 19 1 8 32
M  V30 20 2 10 9
M  V30 21 1 9 11
M  V30 22 1 14 9
M  V30 23 1 12 10
M  V30 24 1 10 16
M  V30 25 1 11 33
M  V30 26 1 11 34
M  V30 27 1 13 12
M  V30 28 2 18 12
M  V30 29 1 15 13
M  V30 30 2 14 15
M  V30 31 1 14 35
M  V30 32 1 15 36
M  V30 33 1 16 37
M  V30 34 1 16 38
M  V30 35 1 16 39
M  V30 36 2 17 19
M  V30 37 1 17 20
M  V30 38 1 19 22
M  V30 39 1 19 40
M  V30 40 2 20 21
M  V30 41 1 20 41
M  V30 42 1 21 23
M  V30 43 2 22 23
M  V30 44 1 25 42
M  V30 45 1 25 43
M  V30 46 1 25 44
M  V30 47 1 26 45
M  V30 48 1 26 46
M  V30 49 1 26 47
M  V30 50 1 27 48
M  V30 51 1 27 49
M  V30 52 1 27 50
M  V30 END BOND
M  V30 END CTAB
M  END
