
  Chem3D Core 14.010291511273D

  0  0  0     0  0              0 V3000
M  V30 BEGIN CTAB
M  V30 COUNTS 48 50 0 0 0
M  V30 BEGIN ATOM
M  V30 1 N -0.334364 1.614864 0.011371 0
M  V30 2 N -2.347380 -1.955410 0.824074 0
M  V30 3 C -1.499228 0.198745 1.908504 0
M  V30 4 C -0.598047 1.399943 1.503154 0
M  V30 5 C -1.347357 2.159102 -0.594069 0
M  V30 6 C 0.860475 1.230918 -0.325468 0
M  V30 7 C -1.194080 -1.115963 1.150809 0
M  V30 8 C -0.413958 1.849488 -2.918015 0
M  V30 9 C 0.891791 2.494913 -2.497843 0
M  V30 10 C -1.460398 2.316330 -1.941504 0
M  V30 11 C 1.497302 1.570615 -1.477444 0
M  V30 12 C -1.396751 0.028317 3.439188 0
M  V30 13 C -2.467035 2.590107 0.048135 0
M  V30 14 C 1.634307 0.428251 0.455137 0
M  V30 15 C -2.536691 2.879004 -2.530156 0
M  V30 16 C 2.742189 1.148830 -1.782172 0
M  V30 17 C -3.546801 3.152389 -0.516418 0
M  V30 18 C 2.871894 -0.005181 0.171237 0
M  V30 19 C -3.591438 3.315164 -1.838304 0
M  V30 20 C 3.451054 0.357757 -0.973322 0
M  V30 21 C -1.922762 -3.104986 0.033325 0
M  V30 22 C -3.092939 -2.404674 1.988033 0
M  V30 23 H -2.557819 0.455343 1.663201 0
M  V30 24 H 0.317223 1.431811 2.128201 0
M  V30 25 H -0.939160 2.340464 1.988292 0
M  V30 26 H -0.727719 -0.841031 0.177045 0
M  V30 27 H -0.428387 -1.698809 1.713706 0
M  V30 28 H -0.366085 0.736372 -2.942549 0
M  V30 29 H -0.635268 2.161910 -3.965553 0
M  V30 30 H 0.760082 3.519684 -2.080823 0
M  V30 31 H 1.536282 2.617962 -3.399557 0
M  V30 32 H -2.055464 -0.768318 3.842565 0
M  V30 33 H -1.679645 0.968539 3.965553 0
M  V30 34 H -0.357719 -0.231046 3.744829 0
M  V30 35 H -2.629996 2.545114 1.132451 0
M  V30 36 H 1.305217 -0.020231 1.403970 0
M  V30 37 H -2.594481 2.990955 -3.626207 0
M  V30 38 H 3.231906 1.453050 -2.722746 0
M  V30 39 H -4.405673 3.481999 0.094466 0
M  V30 40 H 3.414512 -0.674317 0.861752 0
M  V30 41 H -4.465255 3.768475 -2.333630 0
M  V30 42 H 4.465255 0.017053 -1.237496 0
M  V30 43 H -2.798478 -3.711575 -0.293075 0
M  V30 44 H -1.405477 -2.784037 -0.899890 0
M  V30 45 H -1.233535 -3.768475 0.604591 0
M  V30 46 H -3.914010 -3.097834 1.694105 0
M  V30 47 H -3.604114 -1.554659 2.490947 0
M  V30 48 H -2.440515 -2.936092 2.717961 0
M  V30 END ATOM
M  V30 BEGIN BOND
M  V30 1 1 1 4
M  V30 2 1 1 5
M  V30 3 1 1 6
M  V30 4 1 2 7
M  V30 5 1 2 21
M  V30 6 1 2 22
M  V30 7 1 3 4
M  V30 8 1 3 7
M  V30 9 1 3 12
M  V30 10 1 3 23
M  V30 11 1 4 24
M  V30 12 1 4 25
M  V30 13 2 5 10
M  V30 14 1 5 13
M  V30 15 2 11 6
M  V30 16 1 14 6
M  V30 17 1 7 26
M  V30 18 1 7 27
M  V30 19 1 8 9
M  V30 20 1 10 8
M  V30 21 1 8 28
M  V30 22 1 8 29
M  V30 23 1 9 11
M  V30 24 1 9 30
M  V30 25 1 9 31
M  V30 26 1 15 10
M  V30 27 1 11 16
M  V30 28 1 12 32
M  V30 29 1 12 33
M  V30 30 1 12 34
M  V30 31 2 13 17
M  V30 32 1 13 35
M  V30 33 2 18 14
M  V30 34 1 14 36
M  V30 35 2 19 15
M  V30 36 1 15 37
M  V30 37 2 16 20
M  V30 38 1 16 38
M  V30 39 1 17 19
M  V30 40 1 17 39
M  V30 41 1 20 18
M  V30 42 1 18 40
M  V30 43 1 19 41
M  V30 44 1 20 42
M  V30 45 1 21 43
M  V30 46 1 21 44
M  V30 47 1 21 45
M  V30 48 1 22 46
M  V30 49 1 22 47
M  V30 50 1 22 48
M  V30 END BOND
M  V30 END CTAB
M  END
