
  Chem3D Core 15.001121613403D

  0  0  0     0  0              0 V3000
M  V30 BEGIN CTAB
M  V30 COUNTS 51 55 0 0 0
M  V30 BEGIN ATOM
M  V30 1 S -2.161264 1.039244 -1.873751 0 CHG=1
M  V30 2 O -0.141120 -0.589250 3.114983 0
M  V30 3 N -0.619560 -1.259649 0.975477 0
M  V30 4 N 0.118260 0.771095 1.279335 0
M  V30 5 C -0.733199 -0.681847 -0.360719 0
M  V30 6 C -2.168963 -0.503834 -0.889035 0
M  V30 7 C -0.058495 0.716633 -0.171591 0
M  V30 8 C -0.922518 1.821432 -0.793428 0
M  V30 9 C -3.322747 -0.441343 0.128819 0
M  V30 10 C -3.663703 1.655939 -1.046763 0
M  V30 11 C -3.721395 1.020475 0.347090 0
M  V30 12 C -0.214450 -0.378564 1.935027 0
M  V30 13 C -0.894384 -2.665809 1.248295 0
M  V30 14 C 0.609484 1.975365 1.934487 0
M  V30 15 C -1.208014 -3.469253 0.003801 0
M  V30 16 C 1.636177 2.693862 1.085913 0
M  V30 17 C -2.474169 -3.797106 -0.312221 0
M  V30 18 C -0.218468 -3.904593 -0.797486 0
M  V30 19 C 1.382016 3.902268 0.552141 0
M  V30 20 C 2.837408 2.132692 0.857583 0
M  V30 21 C -2.749115 -4.515038 -1.412232 0
M  V30 22 C -0.484751 -4.623226 -1.899090 0
M  V30 23 C 2.298512 4.529895 -0.201080 0
M  V30 24 C 3.758924 2.754322 0.105819 0
M  V30 25 C -1.753430 -4.927450 -2.210836 0
M  V30 26 C 3.489709 3.955706 -0.426891 0
M  V30 27 H -0.117784 -1.256258 -1.093994 0
M  V30 28 H -2.388002 -1.320950 -1.619232 0
M  V30 29 H 0.948477 0.691560 -0.655694 0
M  V30 30 H -0.308748 2.501711 -1.427452 0
M  V30 31 H -1.388257 2.459163 -0.014361 0
M  V30 32 H -4.210155 -0.966982 -0.302586 0
M  V30 33 H -3.100988 -0.949915 1.090915 0
M  V30 34 H -4.532576 1.309108 -1.654443 0
M  V30 35 H -3.687778 2.767833 -1.011590 0
M  V30 36 H -3.010665 1.500974 1.057266 0
M  V30 37 H -4.736874 1.114945 0.797055 0
M  V30 38 H -0.005092 -3.118023 1.746962 0
M  V30 39 H -1.729852 -2.741707 1.981506 0
M  V30 40 H -0.257689 2.629204 2.180600 0
M  V30 41 H 1.096964 1.724075 2.905007 0
M  V30 42 H -3.306184 -3.471451 0.333320 0
M  V30 43 H 0.829581 -3.664136 -0.552580 0
M  V30 44 H 0.408343 4.389235 0.725973 0
M  V30 45 H 3.068810 1.144460 1.288860 0
M  V30 46 H -3.793853 -4.767735 -1.659422 0
M  V30 47 H 0.339047 -4.964953 -2.547888 0
M  V30 48 H 2.072615 5.518154 -0.635607 0
M  V30 49 H 4.736874 2.277692 -0.075205 0
M  V30 50 H -1.976110 -5.518154 -3.114983 0
M  V30 51 H 4.244076 4.469186 -1.046004 0
M  V30 END ATOM
M  V30 BEGIN BOND
M  V30 1 1 1 6
M  V30 2 1 1 8
M  V30 3 1 1 10
M  V30 4 2 2 12
M  V30 5 1 3 5
M  V30 6 1 3 12
M  V30 7 1 3 13
M  V30 8 1 4 7
M  V30 9 1 4 12
M  V30 10 1 4 14
M  V30 11 1 5 6
M  V30 12 1 5 7
M  V30 13 1 5 27
M  V30 14 1 6 9
M  V30 15 1 6 28
M  V30 16 1 7 8
M  V30 17 1 7 29
M  V30 18 1 8 30
M  V30 19 1 8 31
M  V30 20 1 9 11
M  V30 21 1 9 32
M  V30 22 1 9 33
M  V30 23 1 10 11
M  V30 24 1 10 34
M  V30 25 1 10 35
M  V30 26 1 11 36
M  V30 27 1 11 37
M  V30 28 1 13 15
M  V30 29 1 13 38
M  V30 30 1 13 39
M  V30 31 1 14 16
M  V30 32 1 14 40
M  V30 33 1 14 41
M  V30 34 1 15 17
M  V30 35 2 15 18
M  V30 36 1 16 19
M  V30 37 2 16 20
M  V30 38 2 17 21
M  V30 39 1 17 42
M  V30 40 1 22 18
M  V30 41 1 18 43
M  V30 42 2 19 23
M  V30 43 1 19 44
M  V30 44 1 24 20
M  V30 45 1 20 45
M  V30 46 1 21 25
M  V30 47 1 21 46
M  V30 48 2 25 22
M  V30 49 1 22 47
M  V30 50 1 23 26
M  V30 51 1 23 48
M  V30 52 2 26 24
M  V30 53 1 24 49
M  V30 54 1 25 50
M  V30 55 1 26 51
M  V30 END BOND
M  V30 END CTAB
M  END
