
  Chem3D Core 14.010291511233D

  0  0  0     0  0              0 V3000
M  V30 BEGIN CTAB
M  V30 COUNTS 56 57 0 0 0
M  V30 BEGIN ATOM
M  V30 1 O -1.627203 -3.889589 2.854075 0
M  V30 2 O 5.241805 4.101353 -2.292390 0
M  V30 3 O 2.884249 5.096997 1.658646 0
M  V30 4 O 4.124160 5.898840 -0.651706 0
M  V30 5 O 4.728312 -0.175895 0.130441 0
M  V30 6 N -4.847540 -5.551626 2.117171 0
M  V30 7 N 3.024266 -0.024090 1.449781 0
M  V30 8 C -3.588002 -5.250296 2.792298 0
M  V30 9 C 0.828726 -0.642736 2.176801 0
M  V30 10 C 1.766055 0.523329 1.957183 0
M  V30 11 C -2.924568 -3.952125 2.318696 0
M  V30 12 C -0.846619 -2.789767 2.587572 0
M  V30 13 C 3.962342 1.921626 0.342184 0
M  V30 14 C 1.180958 -1.653145 2.988420 0
M  V30 15 C -0.370037 -0.717240 1.575716 0
M  V30 16 C 0.357705 -2.693653 3.183850 0
M  V30 17 C -1.185741 -1.763786 1.780946 0
M  V30 18 C 3.954866 0.590909 0.657316 0
M  V30 19 C 3.422665 2.871028 1.121610 0
M  V30 20 C 4.559690 2.349154 -0.786484 0
M  V30 21 C 4.621886 3.645932 -1.149310 0
M  V30 22 C 3.415413 4.174241 0.789798 0
M  V30 23 C 4.098423 4.567422 -0.307887 0
M  V30 24 C -5.356978 -6.847263 2.546879 0
M  V30 25 C -5.853063 -4.521093 2.330963 0
M  V30 26 C 6.000274 3.208618 -3.075019 0
M  V30 27 C 1.545793 5.435494 1.374026 0
M  V30 28 C 5.240493 6.597010 -0.147808 0
M  V30 29 H 3.188690 -1.019248 1.599132 0
M  V30 30 H -2.866408 -6.080956 2.595253 0
M  V30 31 H -3.733458 -5.204905 3.898244 0
M  V30 32 H 1.919683 1.008495 2.948701 0
M  V30 33 H 1.318544 1.239805 1.231604 0
M  V30 34 H -3.499219 -3.068932 2.681153 0
M  V30 35 H -2.862422 -3.958559 1.205283 0
M  V30 36 H 2.154773 -1.630504 3.505470 0
M  V30 37 H -0.696835 0.092322 0.901828 0
M  V30 38 H 0.680513 -3.503105 3.861295 0
M  V30 39 H -2.153527 -1.750440 1.254961 0
M  V30 40 H 2.983071 2.629942 2.097774 0
M  V30 41 H 5.012527 1.606553 -1.459532 0
M  V30 42 H -6.283208 -7.116493 1.989114 0
M  V30 43 H -4.620294 -7.656550 2.337814 0
M  V30 44 H -5.590586 -6.860218 3.636274 0
M  V30 45 H -6.814761 -4.794575 1.839471 0
M  V30 46 H -5.549602 -3.554082 1.872070 0
M  V30 47 H -6.052314 -4.355660 3.414507 0
M  V30 48 H 6.467812 3.794279 -3.898244 0
M  V30 49 H 6.814761 2.755297 -2.466880 0
M  V30 50 H 5.342410 2.438620 -3.535914 0
M  V30 51 H 1.209406 6.183094 2.126544 0
M  V30 52 H 1.469577 5.882227 0.357880 0
M  V30 53 H 0.902363 4.529827 1.445775 0
M  V30 54 H 5.165117 7.656550 -0.479580 0
M  V30 55 H 5.243660 6.563406 0.964358 0
M  V30 56 H 6.180869 6.156308 -0.547188 0
M  V30 END ATOM
M  V30 BEGIN BOND
M  V30 1 1 1 11
M  V30 2 1 1 12
M  V30 3 1 2 21
M  V30 4 1 2 26
M  V30 5 1 3 22
M  V30 6 1 3 27
M  V30 7 1 4 23
M  V30 8 1 4 28
M  V30 9 2 5 18
M  V30 10 1 6 8
M  V30 11 1 6 24
M  V30 12 1 6 25
M  V30 13 1 7 10
M  V30 14 1 7 18
M  V30 15 1 7 29
M  V30 16 1 8 11
M  V30 17 1 8 30
M  V30 18 1 8 31
M  V30 19 1 9 10
M  V30 20 1 9 14
M  V30 21 2 9 15
M  V30 22 1 10 32
M  V30 23 1 10 33
M  V30 24 1 11 34
M  V30 25 1 11 35
M  V30 26 1 16 12
M  V30 27 2 12 17
M  V30 28 1 13 18
M  V30 29 1 13 19
M  V30 30 2 13 20
M  V30 31 2 14 16
M  V30 32 1 14 36
M  V30 33 1 17 15
M  V30 34 1 15 37
M  V30 35 1 16 38
M  V30 36 1 17 39
M  V30 37 2 19 22
M  V30 38 1 19 40
M  V30 39 1 21 20
M  V30 40 1 20 41
M  V30 41 2 23 21
M  V30 42 1 22 23
M  V30 43 1 24 42
M  V30 44 1 24 43
M  V30 45 1 24 44
M  V30 46 1 25 45
M  V30 47 1 25 46
M  V30 48 1 25 47
M  V30 49 1 26 48
M  V30 50 1 26 49
M  V30 51 1 26 50
M  V30 52 1 27 51
M  V30 53 1 27 52
M  V30 54 1 27 53
M  V30 55 1 28 54
M  V30 56 1 28 55
M  V30 57 1 28 56
M  V30 END BOND
M  V30 END CTAB
M  END
