
  Chem3D Core 14.010291511283D

  0  0  0     0  0              0 V3000
M  V30 BEGIN CTAB
M  V30 COUNTS 29 31 0 0 0
M  V30 BEGIN ATOM
M  V30 1 C -3.087297 -2.672841 0.254544 0
M  V30 2 C -2.749583 -1.195040 0.192049 0
M  V30 3 C -3.764136 -0.314259 0.222889 0
M  V30 4 C -3.532216 1.021081 0.170352 0
M  V30 5 O -4.473045 1.793064 0.200769 0
M  V30 6 O -2.264993 1.509007 0.084300 0
M  V30 7 C -1.246167 0.595957 0.054936 0
M  V30 8 C -1.478786 -0.741069 0.107815 0
M  V30 9 C -0.446189 -1.609335 0.076513 0
M  V30 10 C 0.795076 -1.127922 -0.006440 0
M  V30 11 C 2.001579 -1.701528 -0.055513 0
M  V30 12 C 2.846458 -0.659639 -0.133501 0
M  V30 13 O 2.239136 0.414488 -0.132602 0
M  V30 14 C 1.032912 0.182875 -0.059091 0
M  V30 15 C 0.022868 1.063269 -0.029619 0
M  V30 16 C 0.346590 2.539731 -0.091865 0
M  V30 17 C 4.341843 -0.754633 -0.212337 0
M  V30 18 H -2.635307 -3.145919 1.155847 0
M  V30 19 H -4.180984 -2.866552 0.320389 0
M  V30 20 H -2.735392 -3.199838 -0.661368 0
M  V30 21 H -4.804924 -0.672917 0.292035 0
M  V30 22 H -0.563694 -2.702402 0.115875 0
M  V30 23 H 2.243840 -2.770078 -0.036409 0
M  V30 24 H -0.546873 3.199838 -0.058468 0
M  V30 25 H 0.995780 2.826493 0.766719 0
M  V30 26 H 0.889605 2.773409 -1.036005 0
M  V30 27 H 4.688727 -1.812124 -0.191758 0
M  V30 28 H 4.705399 -0.288159 -1.155847 0
M  V30 29 H 4.804924 -0.220706 0.648164 0
M  V30 END ATOM
M  V30 BEGIN BOND
M  V30 1 1 1 2
M  V30 2 1 1 18
M  V30 3 1 1 19
M  V30 4 1 1 20
M  V30 5 2 2 3
M  V30 6 1 8 2
M  V30 7 1 3 4
M  V30 8 1 3 21
M  V30 9 2 4 5
M  V30 10 1 4 6
M  V30 11 1 6 7
M  V30 12 2 8 7
M  V30 13 1 7 15
M  V30 14 1 9 8
M  V30 15 2 10 9
M  V30 16 1 9 22
M  V30 17 1 11 10
M  V30 18 1 10 14
M  V30 19 2 12 11
M  V30 20 1 11 23
M  V30 21 1 12 13
M  V30 22 1 12 17
M  V30 23 1 14 13
M  V30 24 2 15 14
M  V30 25 1 15 16
M  V30 26 1 16 24
M  V30 27 1 16 25
M  V30 28 1 16 26
M  V30 29 1 17 27
M  V30 30 1 17 28
M  V30 31 1 17 29
M  V30 END BOND
M  V30 END CTAB
M  END
