
  Chem3D Core 14.010291511303D

  0  0  0     0  0              0 V3000
M  V30 BEGIN CTAB
M  V30 COUNTS 40 41 0 0 0
M  V30 BEGIN ATOM
M  V30 1 N 0.304078 0.078341 -0.725828 0
M  V30 2 N -2.609629 -2.477997 -0.410795 0
M  V30 3 N -0.406406 1.914930 0.292353 0
M  V30 4 C -1.006865 -0.526260 -0.315683 0
M  V30 5 C -1.269997 -1.987649 -0.732554 0
M  V30 6 C 1.318883 -0.689472 -1.501558 0
M  V30 7 C 0.500229 1.292073 -0.353422 0
M  V30 8 C 2.057679 -1.672540 -0.616589 0
M  V30 9 C -2.791374 -3.825989 -0.935207 0
M  V30 10 C -2.890397 -2.458162 1.017568 0
M  V30 11 C 2.570287 -1.294778 0.568658 0
M  V30 12 C 2.213669 -2.955130 -0.994178 0
M  V30 13 C 1.640597 1.980905 -0.594167 0
M  V30 14 C 3.216478 -2.168798 1.355933 0
M  V30 15 C 2.857935 -3.836076 -0.213155 0
M  V30 16 C 1.816093 3.248575 -0.187841 0
M  V30 17 C 3.361390 -3.444019 0.966495 0
M  V30 18 C -0.272532 3.108285 0.688235 0
M  V30 19 C 0.823988 3.846177 0.480380 0
M  V30 20 H -1.055217 -0.489750 0.799260 0
M  V30 21 H -1.845797 0.077644 -0.741159 0
M  V30 22 H -1.145278 -2.048012 -1.840141 0
M  V30 23 H -0.500131 -2.647418 -0.267810 0
M  V30 24 H 0.791695 -1.219726 -2.324646 0
M  V30 25 H 2.050491 -0.086886 -2.074694 0
M  V30 26 H -3.830756 -4.186404 -0.758688 0
M  V30 27 H -2.636892 -3.852238 -2.038262 0
M  V30 28 H -2.087083 -4.551365 -0.466742 0
M  V30 29 H -3.890876 -2.897966 1.233854 0
M  V30 30 H -2.938104 -1.418819 1.410940 0
M  V30 31 H -2.129035 -3.028640 1.597302 0
M  V30 32 H 2.465354 -0.253739 0.912628 0
M  V30 33 H 1.806058 -3.300301 -1.958827 0
M  V30 34 H 2.507157 1.559519 -1.122420 0
M  V30 35 H 3.628541 -1.839540 2.324646 0
M  V30 36 H 2.973050 -4.883212 -0.539870 0
M  V30 37 H 2.754916 3.790071 -0.391449 0
M  V30 38 H 3.890876 -4.164878 1.611459 0
M  V30 39 H -1.127424 3.540245 1.236141 0
M  V30 40 H 0.906450 4.883212 0.841700 0
M  V30 END ATOM
M  V30 BEGIN BOND
M  V30 1 1 1 4
M  V30 2 1 1 6
M  V30 3 1 1 7
M  V30 4 1 2 5
M  V30 5 1 2 9
M  V30 6 1 2 10
M  V30 7 2 7 3
M  V30 8 1 3 18
M  V30 9 1 4 5
M  V30 10 1 4 20
M  V30 11 1 4 21
M  V30 12 1 5 22
M  V30 13 1 5 23
M  V30 14 1 6 8
M  V30 15 1 6 24
M  V30 16 1 6 25
M  V30 17 1 13 7
M  V30 18 1 8 11
M  V30 19 2 8 12
M  V30 20 1 9 26
M  V30 21 1 9 27
M  V30 22 1 9 28
M  V30 23 1 10 29
M  V30 24 1 10 30
M  V30 25 1 10 31
M  V30 26 2 11 14
M  V30 27 1 11 32
M  V30 28 1 15 12
M  V30 29 1 12 33
M  V30 30 2 16 13
M  V30 31 1 13 34
M  V30 32 1 14 17
M  V30 33 1 14 35
M  V30 34 2 17 15
M  V30 35 1 15 36
M  V30 36 1 19 16
M  V30 37 1 16 37
M  V30 38 1 17 38
M  V30 39 2 19 18
M  V30 40 1 18 39
M  V30 41 1 19 40
M  V30 END BOND
M  V30 END CTAB
M  END
