
  Chem3D Core 14.010291511343D

  0  0  0     0  0              0 V3000
M  V30 BEGIN CTAB
M  V30 COUNTS 43 45 0 0 0
M  V30 BEGIN ATOM
M  V30 1 N -3.377179 -2.440694 -0.486749 0
M  V30 2 N -2.255924 2.018723 -1.002293 0
M  V30 3 C -3.601760 -3.878128 -0.423174 0
M  V30 4 C -3.257463 -2.072702 0.917639 0
M  V30 5 C -2.437986 -3.188406 1.586427 0
M  V30 6 C -2.672784 -4.410182 0.680708 0
M  V30 7 C -2.183511 -2.104589 -1.257082 0
M  V30 8 C -2.039829 -0.597572 -1.371957 0
M  V30 9 C -0.940608 0.165794 -1.154939 0
M  V30 10 C 0.266629 -0.438783 -1.029303 0
M  V30 11 C -1.086913 1.517873 -1.064597 0
M  V30 12 C 1.162179 -0.055741 -0.096035 0
M  V30 13 C 0.637296 -1.470740 -1.814045 0
M  V30 14 C -0.046789 2.381533 -1.113416 0
M  V30 15 C 2.708402 -1.680349 -0.751286 0
M  V30 16 C 2.353518 -0.658355 0.043779 0
M  V30 17 C 1.827731 -2.076555 -1.683867 0
M  V30 18 C -0.223759 3.710870 -1.056187 0
M  V30 19 C 4.042679 -2.373033 -0.612973 0
M  V30 20 C -2.451625 3.266979 -0.943931 0
M  V30 21 C -1.472834 4.180137 -0.960485 0
M  V30 22 H -4.663190 -4.063923 -0.126708 0
M  V30 23 H -3.450815 -4.386558 -1.402209 0
M  V30 24 H -2.818400 -1.061952 1.073802 0
M  V30 25 H -4.278633 -2.048785 1.370987 0
M  V30 26 H -1.355713 -2.918991 1.613182 0
M  V30 27 H -2.771811 -3.369830 2.634075 0
M  V30 28 H -1.710003 -4.768886 0.246319 0
M  V30 29 H -3.137429 -5.259909 1.232137 0
M  V30 30 H -2.299439 -2.495187 -2.296892 0
M  V30 31 H -1.293395 -2.587114 -0.800318 0
M  V30 32 H -3.018050 -0.134355 -1.590731 0
M  V30 33 H 0.920406 0.738711 0.631362 0
M  V30 34 H -0.011139 -1.822298 -2.634075 0
M  V30 35 H 0.996597 2.053620 -1.240601 0
M  V30 36 H 3.039934 -0.316933 0.836474 0
M  V30 37 H 2.093869 -2.904477 -2.362420 0
M  V30 38 H 0.632276 4.404088 -1.103646 0
M  V30 39 H 4.663190 -1.947610 0.207035 0
M  V30 40 H 3.895362 -3.455307 -0.394663 0
M  V30 41 H 4.625489 -2.279511 -1.557560 0
M  V30 42 H -3.503736 3.593585 -0.880490 0
M  V30 43 H -1.684897 5.259909 -0.914421 0
M  V30 END ATOM
M  V30 BEGIN BOND
M  V30 1 1 1 3
M  V30 2 1 1 4
M  V30 3 1 1 7
M  V30 4 2 11 2
M  V30 5 1 2 20
M  V30 6 1 3 6
M  V30 7 1 3 22
M  V30 8 1 3 23
M  V30 9 1 5 4
M  V30 10 1 4 24
M  V30 11 1 4 25
M  V30 12 1 6 5
M  V30 13 1 5 26
M  V30 14 1 5 27
M  V30 15 1 6 28
M  V30 16 1 6 29
M  V30 17 1 7 8
M  V30 18 1 7 30
M  V30 19 1 7 31
M  V30 20 2 8 9
M  V30 21 1 8 32
M  V30 22 1 9 10
M  V30 23 1 9 11
M  V30 24 1 10 12
M  V30 25 2 10 13
M  V30 26 1 14 11
M  V30 27 2 12 16
M  V30 28 1 12 33
M  V30 29 1 17 13
M  V30 30 1 13 34
M  V30 31 2 18 14
M  V30 32 1 14 35
M  V30 33 1 16 15
M  V30 34 2 15 17
M  V30 35 1 15 19
M  V30 36 1 16 36
M  V30 37 1 17 37
M  V30 38 1 21 18
M  V30 39 1 18 38
M  V30 40 1 19 39
M  V30 41 1 19 40
M  V30 42 1 19 41
M  V30 43 2 21 20
M  V30 44 1 20 42
M  V30 45 1 21 43
M  V30 END BOND
M  V30 END CTAB
M  END
