
  Chem3D Core 15.010191517363D

124127  0  0  0  0  0  0  0  0999 V2000
   -1.7592   -4.7091   -2.2921 O   0  0  0  0  0  0  0  0  0  0  0  0
    2.8539   -3.4768   -0.8019 O   0  0  0  0  0  0  0  0  0  0  0  0
    2.9336    1.0204   -0.3803 O   0  0  0  0  0  0  0  0  0  0  0  0
    4.8190   -4.6741   -1.0917 O   0  0  0  0  0  0  0  0  0  0  0  0
   -1.4729   -1.0190   -2.4245 O   0  0  0  0  0  0  0  0  0  0  0  0
   -4.9275   -1.4913    0.0305 O   0  0  0  0  0  0  0  0  0  0  0  0
   -0.3727   -0.3529    0.3160 O   0  0  0  0  0  0  0  0  0  0  0  0
    5.0334   -4.6253    1.8200 O   0  0  0  0  0  0  0  0  0  0  0  0
    0.9931    2.2587   -0.6415 O   0  0  0  0  0  0  0  0  0  0  0  0
    0.3499   -0.1427    2.4844 O   0  0  0  0  0  0  0  0  0  0  0  0
    3.8929    5.1701   -0.9690 O   0  0  0  0  0  0  0  0  0  0  0  0
    2.3201    4.4537   -3.1913 O   0  0  0  0  0  0  0  0  0  0  0  0
   -6.9990   -0.9578    0.7491 O   0  0  0  0  0  0  0  0  0  0  0  0
    4.0190   -4.8508    3.8625 O   0  0  0  0  0  0  0  0  0  0  0  0
    2.5417    6.0153   -4.8026 O   0  0  0  0  0  0  0  0  0  0  0  0
    1.7427   -5.8114    0.5013 N   0  0  0  0  0  0  0  0  0  0  0  0
   -1.0098   -3.2946   -2.4116 C   0  0  0  0  0  0  0  0  0  0  0  0
    0.4023   -3.3269   -1.8390 C   0  0  0  0  0  0  0  0  0  0  0  0
    1.5162   -2.5460   -2.5775 C   0  0  0  0  0  0  0  0  0  0  0  0
    2.8837   -2.5269   -1.8342 C   0  0  0  0  0  0  0  0  0  0  0  0
   -1.3139   -4.1688   -3.5109 C   0  0  0  0  0  0  0  0  0  0  0  0
    3.3265   -1.0994   -1.4004 C   0  0  0  0  0  0  0  0  0  0  0  0
   -1.8703   -2.1241   -2.1255 C   0  0  0  0  0  0  0  0  0  0  0  0
    2.3391   -0.2425   -0.5616 C   0  0  0  0  0  0  0  0  0  0  0  0
   -3.2471   -2.2695   -1.4602 C   0  0  0  0  0  0  0  0  0  0  0  0
    1.6945   -3.0444   -4.0247 C   0  0  0  0  0  0  0  0  0  0  0  0
   -3.6681   -1.1386   -0.4881 C   0  0  0  0  0  0  0  0  0  0  0  0
    1.9025   -0.8714    0.7786 C   0  0  0  0  0  0  0  0  0  0  0  0
    4.0736   -3.8638   -0.2117 C   0  0  0  0  0  0  0  0  0  0  0  0
    3.7583   -0.3331   -2.6786 C   0  0  0  0  0  0  0  0  0  0  0  0
   -2.7324   -0.8531    0.7140 C   0  0  0  0  0  0  0  0  0  0  0  0
    3.8129   -4.5210    1.1359 C   0  0  0  0  0  0  0  0  0  0  0  0
    3.1298   -5.8931    0.9802 C   0  0  0  0  0  0  0  0  0  0  0  0
   -4.2920   -2.4096   -2.5904 C   0  0  0  0  0  0  0  0  0  0  0  0
   -1.6442    0.2130    0.4608 C   0  0  0  0  0  0  0  0  0  0  0  0
    4.0726   -6.6998    0.0644 C   0  0  0  0  0  0  0  0  0  0  0  0
    4.4024   -6.0013   -1.2539 C   0  0  0  0  0  0  0  0  0  0  0  0
    2.1319    2.0487    0.1571 C   0  0  0  0  0  0  0  0  0  0  0  0
    0.5467   -0.4062    1.3206 C   0  0  0  0  0  0  0  0  0  0  0  0
    3.0087   -0.8428    1.8494 C   0  0  0  0  0  0  0  0  0  0  0  0
   -2.2257   -2.1368    1.3958 C   0  0  0  0  0  0  0  0  0  0  0  0
    2.9460    3.3263    0.2890 C   0  0  0  0  0  0  0  0  0  0  0  0
    3.2954    3.9067   -1.0815 C   0  0  0  0  0  0  0  0  0  0  0  0
    2.0028    4.0653   -1.8828 C   0  0  0  0  0  0  0  0  0  0  0  0
    1.2561    2.7335   -1.9317 C   0  0  0  0  0  0  0  0  0  0  0  0
   -1.7198    1.4051    1.4244 C   0  0  0  0  0  0  0  0  0  0  0  0
    3.3528   -6.1515   -2.3532 C   0  0  0  0  0  0  0  0  0  0  0  0
    1.1447   -7.1231    0.2758 C   0  0  0  0  0  0  0  0  0  0  0  0
    0.8746   -5.0666    1.4093 C   0  0  0  0  0  0  0  0  0  0  0  0
   -5.9373   -0.6048    0.2783 C   0  0  0  0  0  0  0  0  0  0  0  0
   -0.0925    2.8447   -2.6485 C   0  0  0  0  0  0  0  0  0  0  0  0
    5.0123   -4.7909    3.1734 C   0  0  0  0  0  0  0  0  0  0  0  0
   -5.6773    0.8507   -0.0740 C   0  0  0  0  0  0  0  0  0  0  0  0
    5.2518    5.1292   -0.5936 C   0  0  0  0  0  0  0  0  0  0  0  0
    6.4314   -4.8926    3.6977 C   0  0  0  0  0  0  0  0  0  0  0  0
    2.1937    5.7236   -3.6770 C   0  0  0  0  0  0  0  0  0  0  0  0
    1.5691    6.7572   -2.7544 C   0  0  0  0  0  0  0  0  0  0  0  0
    0.3129   -2.9544   -0.7940 H   0  0  0  0  0  0  0  0  0  0  0  0
    0.7103   -4.3928   -1.7573 H   0  0  0  0  0  0  0  0  0  0  0  0
    1.1452   -1.5014   -2.6887 H   0  0  0  0  0  0  0  0  0  0  0  0
    3.6558   -2.9035   -2.5470 H   0  0  0  0  0  0  0  0  0  0  0  0
   -0.5483   -4.8252   -3.9220 H   0  0  0  0  0  0  0  0  0  0  0  0
   -2.1503   -3.9353   -4.1649 H   0  0  0  0  0  0  0  0  0  0  0  0
    4.2680   -1.1640   -0.8057 H   0  0  0  0  0  0  0  0  0  0  0  0
    1.4583   -0.1043   -1.2223 H   0  0  0  0  0  0  0  0  0  0  0  0
   -3.2384   -3.2187   -0.8734 H   0  0  0  0  0  0  0  0  0  0  0  0
    2.5030   -2.4899   -4.5533 H   0  0  0  0  0  0  0  0  0  0  0  0
    0.7750   -2.8871   -4.6314 H   0  0  0  0  0  0  0  0  0  0  0  0
    1.9477   -4.1271   -4.0532 H   0  0  0  0  0  0  0  0  0  0  0  0
   -3.7722   -0.2276   -1.1153 H   0  0  0  0  0  0  0  0  0  0  0  0
    1.6750   -1.9445    0.6008 H   0  0  0  0  0  0  0  0  0  0  0  0
    4.6922   -2.9603   -0.0221 H   0  0  0  0  0  0  0  0  0  0  0  0
    4.2686    0.6295   -2.4517 H   0  0  0  0  0  0  0  0  0  0  0  0
    4.4896   -0.9153   -3.2839 H   0  0  0  0  0  0  0  0  0  0  0  0
    2.8918   -0.1019   -3.3368 H   0  0  0  0  0  0  0  0  0  0  0  0
   -3.3917   -0.3797    1.4883 H   0  0  0  0  0  0  0  0  0  0  0  0
    3.1894   -3.8119    1.7255 H   0  0  0  0  0  0  0  0  0  0  0  0
    3.1056   -6.4088    1.9722 H   0  0  0  0  0  0  0  0  0  0  0  0
   -5.3151   -2.6246   -2.2110 H   0  0  0  0  0  0  0  0  0  0  0  0
   -4.0562   -3.2498   -3.2780 H   0  0  0  0  0  0  0  0  0  0  0  0
   -4.3464   -1.4804   -3.2022 H   0  0  0  0  0  0  0  0  0  0  0  0
   -1.8461    0.6830   -0.5348 H   0  0  0  0  0  0  0  0  0  0  0  0
    3.7089   -7.7333   -0.1223 H   0  0  0  0  0  0  0  0  0  0  0  0
    5.0321   -6.8710    0.6102 H   0  0  0  0  0  0  0  0  0  0  0  0
    5.3035   -6.5260   -1.6717 H   0  0  0  0  0  0  0  0  0  0  0  0
    1.7873    1.7552    1.1728 H   0  0  0  0  0  0  0  0  0  0  0  0
    2.7328   -1.4564    2.7376 H   0  0  0  0  0  0  0  0  0  0  0  0
    3.9681   -1.2543    1.4680 H   0  0  0  0  0  0  0  0  0  0  0  0
    3.2141    0.1894    2.2091 H   0  0  0  0  0  0  0  0  0  0  0  0
   -1.6974   -1.9093    2.3489 H   0  0  0  0  0  0  0  0  0  0  0  0
   -3.0681   -2.8186    1.6522 H   0  0  0  0  0  0  0  0  0  0  0  0
   -1.5228   -2.7086    0.7516 H   0  0  0  0  0  0  0  0  0  0  0  0
    3.8648    3.1037    0.8796 H   0  0  0  0  0  0  0  0  0  0  0  0
    2.3572    4.0775    0.8683 H   0  0  0  0  0  0  0  0  0  0  0  0
    3.9778    3.2179   -1.6331 H   0  0  0  0  0  0  0  0  0  0  0  0
    1.3339    4.7939   -1.3784 H   0  0  0  0  0  0  0  0  0  0  0  0
    1.8681    1.9816   -2.4827 H   0  0  0  0  0  0  0  0  0  0  0  0
   -1.8216    1.1057    2.4902 H   0  0  0  0  0  0  0  0  0  0  0  0
   -2.6181    2.0279    1.2078 H   0  0  0  0  0  0  0  0  0  0  0  0
   -0.8419    2.0820    1.3224 H   0  0  0  0  0  0  0  0  0  0  0  0
    3.1884   -7.2245   -2.6037 H   0  0  0  0  0  0  0  0  0  0  0  0
    2.3654   -5.7388   -2.0696 H   0  0  0  0  0  0  0  0  0  0  0  0
    3.6770   -5.6414   -3.2889 H   0  0  0  0  0  0  0  0  0  0  0  0
    0.0848   -7.0306   -0.0548 H   0  0  0  0  0  0  0  0  0  0  0  0
    1.6378   -7.6756   -0.5516 H   0  0  0  0  0  0  0  0  0  0  0  0
    1.1683   -7.7530    1.1943 H   0  0  0  0  0  0  0  0  0  0  0  0
   -0.1756   -5.0468    1.0381 H   0  0  0  0  0  0  0  0  0  0  0  0
    1.1513   -3.9949    1.4837 H   0  0  0  0  0  0  0  0  0  0  0  0
    0.8719   -5.5043    2.4335 H   0  0  0  0  0  0  0  0  0  0  0  0
    0.0243    3.1552   -3.7111 H   0  0  0  0  0  0  0  0  0  0  0  0
   -0.7551    3.5857   -2.1460 H   0  0  0  0  0  0  0  0  0  0  0  0
   -0.6232    1.8643   -2.6496 H   0  0  0  0  0  0  0  0  0  0  0  0
   -5.6232    0.9909   -1.1770 H   0  0  0  0  0  0  0  0  0  0  0  0
   -6.5198    1.4858    0.2822 H   0  0  0  0  0  0  0  0  0  0  0  0
   -4.7635    1.2479    0.4182 H   0  0  0  0  0  0  0  0  0  0  0  0
    5.6289    6.1760   -0.5707 H   0  0  0  0  0  0  0  0  0  0  0  0
    5.3697    4.6935    0.4213 H   0  0  0  0  0  0  0  0  0  0  0  0
    5.8442    4.5574   -1.3417 H   0  0  0  0  0  0  0  0  0  0  0  0
    6.9990   -3.9638    3.4626 H   0  0  0  0  0  0  0  0  0  0  0  0
    6.4351   -5.0295    4.8026 H   0  0  0  0  0  0  0  0  0  0  0  0
    6.9516   -5.7643    3.2398 H   0  0  0  0  0  0  0  0  0  0  0  0
    2.1516    6.8919   -1.8170 H   0  0  0  0  0  0  0  0  0  0  0  0
    1.5532    7.7530   -3.2527 H   0  0  0  0  0  0  0  0  0  0  0  0
    0.5082    6.5044   -2.5307 H   0  0  0  0  0  0  0  0  0  0  0  0
 17  1  1  0      
  1 21  1  0      
 20  2  1  0      
 29  2  1  0      
 24  3  1  0      
 38  3  1  0      
 29  4  1  0      
 37  4  1  0      
  5 23  2  0      
 27  6  1  0      
  6 50  1  0      
  7 35  1  0      
  7 39  1  0      
 32  8  1  0      
  8 52  1  0      
 38  9  1  0      
 45  9  1  0      
 10 39  2  0      
 43 11  1  0      
 11 54  1  0      
 44 12  1  0      
 12 56  1  0      
 13 50  2  0      
 14 52  2  0      
 15 56  2  0      
 33 16  1  0      
 16 48  1  0      
 16 49  1  0      
 17 18  1  0      
 17 21  1  0      
 17 23  1  0      
 18 19  1  0      
 18 58  1  0      
 18 59  1  0      
 19 20  1  0      
 19 26  1  0      
 19 60  1  0      
 20 22  1  0      
 20 61  1  0      
 21 62  1  0      
 21 63  1  0      
 22 24  1  0      
 22 30  1  0      
 22 64  1  0      
 23 25  1  0      
 24 28  1  0      
 24 65  1  0      
 25 27  1  0      
 25 34  1  0      
 25 66  1  0      
 26 67  1  0      
 26 68  1  0      
 26 69  1  0      
 27 31  1  0      
 27 70  1  0      
 28 39  1  0      
 28 40  1  0      
 28 71  1  0      
 29 32  1  0      
 29 72  1  0      
 30 73  1  0      
 30 74  1  0      
 30 75  1  0      
 31 35  1  0      
 31 41  1  0      
 31 76  1  0      
 32 33  1  0      
 32 77  1  0      
 33 36  1  0      
 33 78  1  0      
 34 79  1  0      
 34 80  1  0      
 34 81  1  0      
 35 46  1  0      
 35 82  1  0      
 36 37  1  0      
 36 83  1  0      
 36 84  1  0      
 37 47  1  0      
 37 85  1  0      
 38 42  1  0      
 38 86  1  0      
 40 87  1  0      
 40 88  1  0      
 40 89  1  0      
 41 90  1  0      
 41 91  1  0      
 41 92  1  0      
 42 43  1  0      
 42 93  1  0      
 42 94  1  0      
 43 44  1  0      
 43 95  1  0      
 44 45  1  0      
 44 96  1  0      
 45 51  1  0      
 45 97  1  0      
 46 98  1  0      
 46 99  1  0      
 46100  1  0      
 47101  1  0      
 47102  1  0      
 47103  1  0      
 48104  1  0      
 48105  1  0      
 48106  1  0      
 49107  1  0      
 49108  1  0      
 49109  1  0      
 50 53  1  0      
 51110  1  0      
 51111  1  0      
 51112  1  0      
 52 55  1  0      
 53113  1  0      
 53114  1  0      
 53115  1  0      
 54116  1  0      
 54117  1  0      
 54118  1  0      
 55119  1  0      
 55120  1  0      
 55121  1  0      
 56 57  1  0      
 57122  1  0      
 57123  1  0      
 57124  1  0      
M  END
