


 32 36  0  0001  0  0  0  0  0999 V2000
    3.9289   -1.3413    0.0000 F   0  0  0  0  0  0  0  0  0  0  0
   10.8016   -5.3414    0.0000 F   0  0  0  0  0  0  0  0  0  0  0
    8.4632   -9.3416    0.0000 F   0  0  0  0  0  0  0  0  0  0  0
    8.4039    0.0000    0.0000 O   0  0  0  0  0  0  0  0  0  0  0
   10.7303    0.0000    0.0000 O   0  0  0  0  0  0  0  0  0  0  0
   11.8699   -2.0060    0.0000 O   0  0  0  0  0  0  0  0  0  0  0
    3.9289   -4.0714    0.0000 N   0  0  0  0  0  0  0  0  0  0  0
    0.0000   -6.3385    0.0000 N   0  0  0  0  0  0  0  0  0  0  0
    6.1961   -4.0120    0.0000 N   0  0  0  0  0  0  0  0  0  0  0
    8.4632   -4.0120    0.0000 N   0  0  0  0  0  0  0  0  0  0  0
    1.8042   -4.6055    0.0000 C   0  0  0  0  0  0  0  0  0  0  0
    2.5283   -5.7450    0.0000 C   0  0  0  0  0  0  0  0  0  0  0
    1.1989   -5.7450    0.0000 C   0  0  0  0  0  0  0  0  0  0  0
    2.6707   -3.5372    0.0000 C   0  0  0  0  0  0  0  0  0  0  0
    3.9289   -5.4127    0.0000 C   0  0  0  0  0  0  0  0  0  0  0
    5.0684   -3.3354    0.0000 C   0  0  0  0  0  0  0  0  0  0  0
    7.4068   -3.3354    0.0000 C   0  0  0  0  0  0  0  0  0  0  0
    5.0684   -2.0060    0.0000 C   0  0  0  0  0  0  0  0  0  0  0
    7.4068   -2.0060    0.0000 C   0  0  0  0  0  0  0  0  0  0  0
    6.1961   -1.3413    0.0000 C   0  0  0  0  0  0  0  0  0  0  0
    8.4039   -1.3413    0.0000 C   0  0  0  0  0  0  0  0  0  0  0
    9.6027   -2.0060    0.0000 C   0  0  0  0  0  0  0  0  0  0  0
    8.4632   -5.3414    0.0000 C   0  0  0  0  0  0  0  0  0  0  0
    9.6027   -3.3354    0.0000 C   0  0  0  0  0  0  0  0  0  0  0
    9.6739   -6.0061    0.0000 C   0  0  0  0  0  0  0  0  0  0  0
   10.7303   -1.3413    0.0000 C   0  0  0  0  0  0  0  0  0  0  0
    7.4068   -6.0061    0.0000 C   0  0  0  0  0  0  0  0  0  0  0
    9.6739   -7.4068    0.0000 C   0  0  0  0  0  0  0  0  0  0  0
    7.4068   -7.3356    0.0000 C   0  0  0  0  0  0  0  0  0  0  0
    8.4632   -8.0121    0.0000 C   0  0  0  0  0  0  0  0  0  0  0
    0.9377   -3.6678    0.0000 H   0  0  0  0  0  0  0  0  0  0  0
    2.9319   -7.0032    0.0000 H   0  0  0  0  0  0  0  0  0  0  0
  1 18  1  0
  2 25  1  0
  3 30  1  0
  4 21  2  0
  5 26  2  0
  6 26  1  0
  7 14  1  0
  7 15  1  0
  7 16  1  0
 13  8  1  6
  9 16  2  0
  9 17  1  0
 10 17  1  0
 10 23  1  0
 10 24  1  0
 11 12  1  0
 11 13  1  0
 11 14  1  0
 11 31  1  6
 12 13  1  0
 12 15  1  0
 12 32  1  6
 16 18  1  0
 17 19  2  0
 18 20  2  0
 19 20  1  0
 19 21  1  0
 21 22  1  0
 22 24  2  0
 22 26  1  0
 23 25  2  0
 23 27  1  0
 25 28  1  0
 27 29  2  0
 28 30  2  0
 29 30  1  0
M  END

> <StdInChI>
InChI=1S/C20H15F3N4O3/c21-8-1-2-15(13(22)3-8)27-7-12(20(29)30)17(28)9-4-14(23)19(25-18(9)27)26-5-10-11(6-26)16(10)24/h1-4,7,10-11,16H,5-6,24H2,(H,29,30)/t10-,11+,16+

> <StdInChIKey>
WVPSKSLAZQPAKQ-CDMJZVDBSA-N

> <AuxInfo>
1/1/N:29,27,28,20,14,15,24,30,19,11,12,22,25,18,23,13,21,17,16,26,3,2,1,8,9,7,10,4,5,6/E:(5,6)(10,11)(29,30)/rA:32cFFFOOONNNNCCCCCCCCCCCCCCCCCCCCHH/rB:;;;;;;;;;;s11;n8s11s12;s7s11;s7s12;s7d9;s9s10;s1s16;d17;d18s19;d4s19;s21;s10;s10d22;s2d23;d5s6s22;s23;s25;d27;s3d28s29;N11;N12;/rC:3.9289,-1.3413,0;10.8016,-5.3414,0;8.4632,-9.3416,0;8.4039,0,0;10.7303,0,0;11.8699,-2.006,0;3.9289,-4.0714,0;0,-6.3385,0;6.1961,-4.012,0;8.4632,-4.012,0;1.8042,-4.6055,0;2.5283,-5.745,0;1.1989,-5.745,0;2.6707,-3.5372,0;3.9289,-5.4127,0;5.0684,-3.3354,0;7.4068,-3.3354,0;5.0684,-2.006,0;7.4068,-2.006,0;6.1961,-1.3413,0;8.4039,-1.3413,0;9.6027,-2.006,0;8.4632,-5.3414,0;9.6027,-3.3354,0;9.6739,-6.0061,0;10.7303,-1.3413,0;7.4068,-6.0061,0;9.6739,-7.4068,0;7.4068,-7.3356,0;8.4632,-8.0121,0;.9377,-3.6678,0;2.9319,-7.0032,0;

> <Formula>
C20 H15 F3 N4 O3

> <Mw>
416.3533

> <SMILES>
FC1=CC2C(C(C(O)=O)=CN(C3C=CC(=CC=3F)F)C=2N=C1N1C[C@@]2([H])[C@@H]([C@@]2([H])C1)N)=O

> <CSID>
16736478

$$$$
