
  Chem3D Core 14.010291511443D

  0  0  0     0  0              0 V3000
M  V30 BEGIN CTAB
M  V30 COUNTS 86 87 0 0 0
M  V30 BEGIN ATOM
M  V30 1 Na -11.966723 5.429788 5.158578 0 CHG=1
M  V30 2 Na 16.405233 9.820876 -7.372914 0 CHG=1
M  V30 3 Na -12.530167 -7.315943 6.578021 0 CHG=1
M  V30 4 Na 16.478230 2.957704 -1.969458 0 CHG=1
M  V30 5 C -13.917270 -6.861868 2.787391 0
M  V30 6 C -13.893974 -7.844335 3.688609 0
M  V30 7 C -12.708452 -8.191528 4.186387 0
M  V30 8 C -11.679643 -7.394319 3.990960 0
M  V30 9 C -11.622493 -6.353208 3.173715 0
M  V30 10 C -12.770482 -6.203609 2.517121 0
M  V30 11 C -10.642506 -7.664491 4.777833 0
M  V30 12 C -9.657268 -6.800330 4.891857 0
M  V30 13 C -9.470788 -5.811958 3.991457 0
M  V30 14 C -10.474297 -5.621791 3.093389 0
M  V30 15 N -8.363620 -5.208166 4.045438 0
M  V30 16 O -10.490715 -4.542415 2.286321 0
M  V30 17 S -9.258416 -6.793604 6.638533 0
M  V30 18 O -10.955463 -6.692820 6.905795 0 CHG=-1
M  V30 19 O -9.234692 -8.058217 7.372914 0
M  V30 20 O -8.376529 -5.763746 7.170398 0
M  V30 21 N -12.879802 -5.398457 1.529313 0
M  V30 22 S -15.280019 -8.379182 4.717699 0
M  V30 23 O -14.279193 -7.677895 5.895374 0 CHG=-1
M  V30 24 O -16.478230 -7.692292 4.149780 0
M  V30 25 O -15.308176 -9.820876 4.336869 0
M  V30 26 N -8.065299 -4.433331 3.097541 0
M  V30 27 C -6.933110 -3.888272 2.854439 0
M  V30 28 C -6.877318 -3.164723 1.718572 0
M  V30 29 C -5.754045 -2.557116 1.289610 0
M  V30 30 C -4.568156 -2.620291 1.943248 0
M  V30 31 C -4.655560 -3.340524 3.092285 0
M  V30 32 C -5.777503 -3.949229 3.543428 0
M  V30 33 C -3.424141 -2.014484 1.495527 0
M  V30 34 C -3.367055 -1.192412 0.425919 0
M  V30 35 C -2.242650 -0.594096 -0.009829 0
M  V30 36 C -1.033602 -0.749229 0.571140 0
M  V30 37 C -1.045337 -1.577089 1.633055 0
M  V30 38 C -2.192908 -2.148706 2.046520 0
M  V30 39 C -5.690733 -4.731850 4.847960 0
M  V30 40 C 0.202926 -1.888280 2.402097 0
M  V30 41 N -0.103730 -0.086306 0.016370 0
M  V30 42 N 1.108972 -0.039919 0.317246 0
M  V30 43 C 1.931866 0.705713 -0.327738 0
M  V30 44 C 1.598698 1.592848 -1.312401 0
M  V30 45 C 2.520758 2.358857 -1.951340 0
M  V30 46 C 3.812640 2.289714 -1.566701 0
M  V30 47 C 4.151459 1.432710 -0.594469 0
M  V30 48 C 3.251245 0.636664 0.014802 0
M  V30 49 C 2.254266 3.208408 -2.971100 0
M  V30 50 C 3.206107 3.988888 -3.522888 0
M  V30 51 C 4.490077 3.933497 -3.103947 0
M  V30 52 C 4.766847 3.054485 -2.128737 0
M  V30 53 O 0.283914 1.790488 -1.633752 0
M  V30 54 N 1.109640 3.349588 -3.522812 0
M  V30 55 S 4.007698 -0.426893 1.244367 0
M  V30 56 O 4.734353 -1.742004 0.514989 0 CHG=-1
M  V30 57 O 5.312119 -0.030590 1.764250 0
M  V30 58 O 3.180218 -1.213894 2.134521 0
M  V30 59 S 5.804576 4.942480 -3.760995 0
M  V30 60 O 5.570398 5.855492 -5.143153 0 CHG=-1
M  V30 61 O 6.104947 6.165293 -3.024972 0
M  V30 62 O 6.871538 4.228692 -4.454130 0
M  V30 63 H -14.838201 -6.612207 2.218195 0
M  V30 64 H -12.705720 -8.972840 4.945086 0
M  V30 65 H -10.681482 -8.538582 5.415327 0
M  V30 66 H -11.414800 -4.264682 2.136852 0
M  V30 67 H -13.767853 -5.232442 1.000282 0
M  V30 68 H -12.119165 -4.822048 1.123765 0
M  V30 69 H -7.788151 -3.073548 1.099892 0
M  V30 70 H -5.862732 -2.014728 0.347993 0
M  V30 71 H -3.779825 -3.467899 3.749136 0
M  V30 72 H -4.262916 -0.939611 -0.158732 0
M  V30 73 H -2.332302 0.070338 -0.897645 0
M  V30 74 H -2.078600 -2.813685 2.929860 0
M  V30 75 H -4.679221 -4.695076 5.312456 0
M  V30 76 H -6.372107 -4.296470 5.615802 0
M  V30 77 H -5.895017 -5.817097 4.687978 0
M  V30 78 H 0.939490 -2.395671 1.728525 0
M  V30 79 H 0.627624 -0.957050 2.854516 0
M  V30 80 H 0.086249 -2.583661 3.257597 0
M  V30 81 H 5.214889 1.374321 -0.309614 0
M  V30 82 H 2.978763 4.688692 -4.353106 0
M  V30 83 H 5.816070 2.975031 -1.771364 0
M  V30 84 H 0.172089 2.717757 -1.899474 0
M  V30 85 H 0.998964 4.036546 -4.318245 0
M  V30 86 H 0.287508 2.774259 -3.222699 0
M  V30 END ATOM
M  V30 BEGIN BOND
M  V30 1 1 5 6
M  V30 2 2 5 10
M  V30 3 1 5 63
M  V30 4 2 6 7
M  V30 5 1 6 22
M  V30 6 1 7 8
M  V30 7 1 7 64
M  V30 8 1 8 9
M  V30 9 2 8 11
M  V30 10 1 9 10
M  V30 11 2 14 9
M  V30 12 1 10 21
M  V30 13 1 11 12
M  V30 14 1 11 65
M  V30 15 2 12 13
M  V30 16 1 12 17
M  V30 17 1 13 14
M  V30 18 1 13 15
M  V30 19 1 14 16
M  V30 20 2 15 26
M  V30 21 1 16 66
M  V30 22 1 17 18
M  V30 23 2 17 19
M  V30 24 2 17 20
M  V30 25 1 21 67
M  V30 26 1 21 68
M  V30 27 1 22 23
M  V30 28 2 22 24
M  V30 29 2 22 25
M  V30 30 1 26 27
M  V30 31 1 27 28
M  V30 32 2 27 32
M  V30 33 2 28 29
M  V30 34 1 28 69
M  V30 35 1 29 30
M  V30 36 1 29 70
M  V30 37 2 30 31
M  V30 38 1 30 33
M  V30 39 1 31 32
M  V30 40 1 31 71
M  V30 41 1 32 39
M  V30 42 1 33 34
M  V30 43 2 33 38
M  V30 44 2 34 35
M  V30 45 1 34 72
M  V30 46 1 35 36
M  V30 47 1 35 73
M  V30 48 2 36 37
M  V30 49 1 36 41
M  V30 50 1 37 38
M  V30 51 1 37 40
M  V30 52 1 38 74
M  V30 53 1 39 75
M  V30 54 1 39 76
M  V30 55 1 39 77
M  V30 56 1 40 78
M  V30 57 1 40 79
M  V30 58 1 40 80
M  V30 59 2 41 42
M  V30 60 1 42 43
M  V30 61 2 43 44
M  V30 62 1 48 43
M  V30 63 1 44 45
M  V30 64 1 44 53
M  V30 65 1 45 46
M  V30 66 2 45 49
M  V30 67 1 46 47
M  V30 68 2 52 46
M  V30 69 2 48 47
M  V30 70 1 47 81
M  V30 71 1 48 55
M  V30 72 1 49 50
M  V30 73 1 49 54
M  V30 74 2 50 51
M  V30 75 1 50 82
M  V30 76 1 51 52
M  V30 77 1 51 59
M  V30 78 1 52 83
M  V30 79 1 53 84
M  V30 80 1 54 85
M  V30 81 1 54 86
M  V30 82 1 55 56
M  V30 83 2 55 57
M  V30 84 2 55 58
M  V30 85 1 59 60
M  V30 86 2 59 61
M  V30 87 2 59 62
M  V30 END BOND
M  V30 END CTAB
M  END
