
  Chem3D Core 15.003181615373D

 95100  0  0  0  0  0  0  0  0999 V2000
    2.5462   -1.8102    2.4438 C   0  0  0  0  0  0  0  0  0  0  0  0
    2.1427   -1.9950    3.7101 C   0  0  0  0  0  0  0  0  0  0  0  0
    3.0267   -2.2864    4.6794 C   0  0  0  0  0  0  0  0  0  0  0  0
    4.3249   -2.3850    4.3462 C   0  0  0  0  0  0  0  0  0  0  0  0
    4.7279   -2.2000    3.0797 C   0  0  0  0  0  0  0  0  0  0  0  0
    3.8442   -1.9142    2.1076 C   0  0  0  0  0  0  0  0  0  0  0  0
    4.2954   -1.6961    0.6746 C   0  0  0  0  0  0  0  0  0  0  0  0
    4.3686   -0.2053    0.3423 C   0  0  0  0  0  0  0  0  0  0  0  0
    4.0383    0.0364   -1.1340 C   0  0  0  0  0  0  0  0  0  0  0  0
    2.5636    0.3920   -1.3733 C   0  0  0  0  0  0  0  0  0  0  0  0
    2.1987    0.6005   -3.1508 S   0  0  0  0  0  0  0  0  0  0  0  0
    3.4127   -2.3061   -0.2319 O   0  0  0  0  0  0  0  0  0  0  0  0
    4.4916   -1.0500   -1.8879 O   0  0  0  0  0  0  0  0  0  0  0  0
    3.9202   -2.3090   -1.5548 C   0  0  0  0  0  0  0  0  0  0  0  0
    2.9060   -2.7642   -2.5917 C   0  0  0  0  0  0  0  0  0  0  0  0
    0.7526   -3.4015   -3.2612 C   0  0  0  0  0  0  0  0  0  0  0  0
    1.6072   -2.9741   -2.3164 C   0  0  0  0  0  0  0  0  0  0  0  0
    3.3098   -2.9683   -3.8568 C   0  0  0  0  0  0  0  0  0  0  0  0
    2.4552   -3.3952   -4.7972 C   0  0  0  0  0  0  0  0  0  0  0  0
    1.1637   -3.6517   -4.5161 C   0  0  0  0  0  0  0  0  0  0  0  0
    0.4477   -4.1036   -5.5672 N   0  0  0  0  0  0  0  0  0  0  0  0
   -0.7652   -4.6671   -5.8285 C   0  0  0  0  0  0  0  0  0  0  0  0
   -1.6019   -5.1859   -4.6704 C   0  0  0  0  0  0  0  0  0  0  0  0
   -3.0190   -4.5950   -4.5960 C   0  0  0  0  0  0  0  0  0  0  0  0
   -3.0991   -3.0839   -4.3261 C   0  0  0  0  0  0  0  0  0  0  0  0
   -2.7373   -2.2008   -5.5329 C   0  0  0  0  0  0  0  0  0  0  0  0
   -3.0632   -0.7262   -5.2596 C   0  0  0  0  0  0  0  0  0  0  0  0
   -2.6794    0.2114   -6.4136 C   0  0  0  0  0  0  0  0  0  0  0  0
   -2.9801    1.6661   -6.0956 C   0  0  0  0  0  0  0  0  0  0  0  0
   -3.6354    2.0525   -5.1612 O   0  0  0  0  0  0  0  0  0  0  0  0
   -2.4231    2.5712   -6.9529 N   0  0  0  0  0  0  0  0  0  0  0  0
   -2.5309    3.8487   -6.6537 O   0  0  0  0  0  0  0  0  0  0  0  0
   -1.1175   -4.7925   -6.9734 O   0  0  0  0  0  0  0  0  0  0  0  0
    2.5794   -2.4940    6.1065 C   0  0  0  0  0  0  0  0  0  0  0  0
    2.7239   -1.2896    6.8475 O   0  0  0  0  0  0  0  0  0  0  0  0
    0.4495    0.9852   -2.8748 C   0  0  0  0  0  0  0  0  0  0  0  0
   -1.4379    0.7811   -2.2255 C   0  0  0  0  0  0  0  0  0  0  0  0
   -1.3140    2.0203   -2.7612 C   0  0  0  0  0  0  0  0  0  0  0  0
   -0.1284    2.0516   -3.2130 N   0  0  0  0  0  0  0  0  0  0  0  0
   -0.3242    0.2525   -2.2728 O   0  0  0  0  0  0  0  0  0  0  0  0
   -2.0959    3.1170   -2.8855 C   0  0  0  0  0  0  0  0  0  0  0  0
   -3.9758    4.4257   -2.3166 C   0  0  0  0  0  0  0  0  0  0  0  0
   -3.2122    3.3324   -2.1625 C   0  0  0  0  0  0  0  0  0  0  0  0
   -1.7341    4.1253   -3.7104 C   0  0  0  0  0  0  0  0  0  0  0  0
   -2.4831    5.2268   -3.8781 C   0  0  0  0  0  0  0  0  0  0  0  0
   -3.6240    5.3750   -3.1933 C   0  0  0  0  0  0  0  0  0  0  0  0
   -2.4588    0.0437   -1.7273 C   0  0  0  0  0  0  0  0  0  0  0  0
   -2.1987   -1.1002   -1.0547 C   0  0  0  0  0  0  0  0  0  0  0  0
   -3.7634    0.3035   -1.9426 C   0  0  0  0  0  0  0  0  0  0  0  0
   -4.7480   -0.4773   -1.4703 C   0  0  0  0  0  0  0  0  0  0  0  0
   -4.4553   -1.5790   -0.7675 C   0  0  0  0  0  0  0  0  0  0  0  0
   -3.1683   -1.8924   -0.5703 C   0  0  0  0  0  0  0  0  0  0  0  0
    1.7955   -1.5644    1.6742 H   0  0  0  0  0  0  0  0  0  0  0  0
    1.0714   -1.8998    3.9532 H   0  0  0  0  0  0  0  0  0  0  0  0
    5.0731   -2.6160    5.1227 H   0  0  0  0  0  0  0  0  0  0  0  0
    5.8016   -2.2816    2.8424 H   0  0  0  0  0  0  0  0  0  0  0  0
    5.2953   -2.1728    0.5344 H   0  0  0  0  0  0  0  0  0  0  0  0
    5.3910    0.1680    0.5904 H   0  0  0  0  0  0  0  0  0  0  0  0
    3.6627    0.3840    0.9721 H   0  0  0  0  0  0  0  0  0  0  0  0
    4.6368    0.9186   -1.4782 H   0  0  0  0  0  0  0  0  0  0  0  0
    1.8957   -0.3775   -0.9282 H   0  0  0  0  0  0  0  0  0  0  0  0
    2.3336    1.3445   -0.8385 H   0  0  0  0  0  0  0  0  0  0  0  0
    4.7468   -3.0607   -1.5879 H   0  0  0  0  0  0  0  0  0  0  0  0
   -0.2966   -3.5120   -2.9591 H   0  0  0  0  0  0  0  0  0  0  0  0
    1.2193   -2.7914   -1.3009 H   0  0  0  0  0  0  0  0  0  0  0  0
    4.3646   -2.7937   -4.1275 H   0  0  0  0  0  0  0  0  0  0  0  0
    2.8462   -3.5577   -5.8171 H   0  0  0  0  0  0  0  0  0  0  0  0
    1.0112   -4.0340   -6.4040 H   0  0  0  0  0  0  0  0  0  0  0  0
   -1.7110   -6.2806   -4.8720 H   0  0  0  0  0  0  0  0  0  0  0  0
   -1.0932   -5.1713   -3.6894 H   0  0  0  0  0  0  0  0  0  0  0  0
   -3.5600   -5.1239   -3.7720 H   0  0  0  0  0  0  0  0  0  0  0  0
   -3.5792   -4.8297   -5.5322 H   0  0  0  0  0  0  0  0  0  0  0  0
   -4.1503   -2.8455   -4.0306 H   0  0  0  0  0  0  0  0  0  0  0  0
   -2.4599   -2.8211   -3.4523 H   0  0  0  0  0  0  0  0  0  0  0  0
   -1.6496   -2.2838   -5.7571 H   0  0  0  0  0  0  0  0  0  0  0  0
   -3.3004   -2.5387   -6.4345 H   0  0  0  0  0  0  0  0  0  0  0  0
   -4.1529   -0.6248   -5.0403 H   0  0  0  0  0  0  0  0  0  0  0  0
   -2.4990   -0.4115   -4.3524 H   0  0  0  0  0  0  0  0  0  0  0  0
   -1.5876    0.1129   -6.6208 H   0  0  0  0  0  0  0  0  0  0  0  0
   -3.2392   -0.0687   -7.3363 H   0  0  0  0  0  0  0  0  0  0  0  0
   -1.8952    2.2544   -7.7512 H   0  0  0  0  0  0  0  0  0  0  0  0
   -2.9386    3.9471   -5.8016 H   0  0  0  0  0  0  0  0  0  0  0  0
    1.5118   -2.7985    6.1700 H   0  0  0  0  0  0  0  0  0  0  0  0
    3.1864   -3.2755    6.6145 H   0  0  0  0  0  0  0  0  0  0  0  0
    2.4390   -1.4386    7.7512 H   0  0  0  0  0  0  0  0  0  0  0  0
   -4.8773    4.5645   -1.6959 H   0  0  0  0  0  0  0  0  0  0  0  0
   -3.5080    2.6523   -1.3510 H   0  0  0  0  0  0  0  0  0  0  0  0
   -0.8168    4.0772   -4.3212 H   0  0  0  0  0  0  0  0  0  0  0  0
   -2.1634    6.0140   -4.5820 H   0  0  0  0  0  0  0  0  0  0  0  0
   -4.2400    6.2806   -3.3184 H   0  0  0  0  0  0  0  0  0  0  0  0
   -1.1665   -1.4339   -0.8509 H   0  0  0  0  0  0  0  0  0  0  0  0
   -4.0863    1.1183   -2.6045 H   0  0  0  0  0  0  0  0  0  0  0  0
   -5.8016   -0.2390   -1.6953 H   0  0  0  0  0  0  0  0  0  0  0  0
   -5.2570   -2.2346   -0.3900 H   0  0  0  0  0  0  0  0  0  0  0  0
   -2.9091   -2.8108   -0.0166 H   0  0  0  0  0  0  0  0  0  0  0  0
  1  2  1  0      
  1  6  2  0      
  1 53  1  0      
  2  3  2  0      
  2 54  1  0      
  3  4  1  0      
  3 34  1  0      
  4  5  2  0      
  4 55  1  0      
  5  6  1  0      
  5 56  1  0      
  6  7  1  0      
  8  7  1  0      
  7 12  1  0      
  7 57  1  0      
  9  8  1  0      
  8 58  1  0      
  8 59  1  0      
  9 10  1  0      
  9 13  1  0      
  9 60  1  0      
 10 11  1  0      
 10 61  1  0      
 10 62  1  0      
 11 36  1  0      
 12 14  1  0      
 14 13  1  0      
 14 15  1  0      
 14 63  1  0      
 15 17  1  0      
 15 18  2  0      
 17 16  2  0      
 16 20  1  0      
 16 64  1  0      
 17 65  1  0      
 19 18  1  0      
 18 66  1  0      
 20 19  2  0      
 19 67  1  0      
 20 21  1  0      
 21 22  1  0      
 21 68  1  0      
 22 23  1  0      
 22 33  2  0      
 23 24  1  0      
 23 69  1  0      
 23 70  1  0      
 24 25  1  0      
 24 71  1  0      
 24 72  1  0      
 25 26  1  0      
 25 73  1  0      
 25 74  1  0      
 26 27  1  0      
 26 75  1  0      
 26 76  1  0      
 27 28  1  0      
 27 77  1  0      
 27 78  1  0      
 28 29  1  0      
 28 79  1  0      
 28 80  1  0      
 29 30  2  0      
 29 31  1  0      
 31 32  1  0      
 31 81  1  0      
 32 82  1  0      
 34 35  1  0      
 34 83  1  0      
 34 84  1  0      
 35 85  1  0      
 36 39  2  0      
 36 40  1  0      
 38 37  2  0      
 37 40  1  0      
 37 47  1  0      
 39 38  1  0      
 38 41  1  0      
 41 43  1  0      
 41 44  2  0      
 43 42  2  0      
 42 46  1  0      
 42 86  1  0      
 43 87  1  0      
 45 44  1  0      
 44 88  1  0      
 46 45  2  0      
 45 89  1  0      
 46 90  1  0      
 47 48  1  0      
 47 49  2  0      
 48 52  2  0      
 48 91  1  0      
 50 49  1  0      
 49 92  1  0      
 51 50  2  0      
 50 93  1  0      
 52 51  1  0      
 51 94  1  0      
 52 95  1  0      
M  END
