
  Chem3D Core 15.001121613423D

  0  0  0     0  0              0 V3000
M  V30 BEGIN CTAB
M  V30 COUNTS 86 92 0 0 0
M  V30 BEGIN ATOM
M  V30 1 O 1.931217 1.537634 1.321318 0
M  V30 2 O 4.600788 4.374550 -1.345226 0
M  V30 3 O 2.381627 3.953922 0.116592 0
M  V30 4 O -1.739344 -3.038952 -0.328376 0
M  V30 5 O -2.380242 -2.731098 2.306640 0
M  V30 6 O -4.196049 -4.137622 0.173560 0
M  V30 7 N 5.045427 -1.307621 1.452909 0 CHG=1
M  V30 8 N -5.009142 1.567707 -2.641395 0
M  V30 9 C 3.743188 -0.550602 1.197581 0
M  V30 10 C 5.799475 -1.482326 0.146871 0
M  V30 11 C 3.994382 0.773934 0.483206 0
M  V30 12 C 6.150101 -0.107569 -0.436691 0
M  V30 13 C 2.716529 -1.368545 0.371766 0
M  V30 14 C 5.096312 0.962519 -0.264215 0
M  V30 15 C 4.787341 -2.672142 2.080775 0
M  V30 16 C 5.893440 -0.532227 2.457992 0
M  V30 17 C 3.069985 1.754644 0.589038 0
M  V30 18 C 1.352426 -1.695896 0.965006 0
M  V30 19 C 5.276298 2.152642 -0.859265 0
M  V30 20 C 3.291626 2.947157 -0.002561 0
M  V30 21 C 4.415830 3.173107 -0.708819 0
M  V30 22 C 0.397012 -2.169931 0.144246 0
M  V30 23 C 1.021032 -1.576256 2.262353 0
M  V30 24 C -3.780489 1.055714 -1.996617 0
M  V30 25 C -3.922612 -0.351177 -1.409044 0
M  V30 26 C -3.168219 2.069636 -1.002738 0
M  V30 27 C -5.920510 0.498894 -3.016994 0
M  V30 28 C -0.838032 -2.513388 0.553280 0
M  V30 29 C -5.112495 -0.959688 -1.257322 0
M  V30 30 C -6.360436 -0.312968 -1.791692 0
M  V30 31 C 0.712900 1.618736 0.699032 0
M  V30 32 C -0.207430 -1.901742 2.691957 0
M  V30 33 C -1.793544 1.837275 -0.411968 0
M  V30 34 C -1.146615 -2.373413 1.856267 0
M  V30 35 C -2.831726 -1.071897 -1.087815 0
M  V30 36 C -2.876635 -2.320662 -0.587551 0
M  V30 37 C -5.178386 -2.184887 -0.713966 0
M  V30 38 C -5.733446 2.600946 -1.907156 0
M  V30 39 C 0.521802 1.582863 -0.634918 0
M  V30 40 C -0.394501 1.718315 1.456071 0
M  V30 41 C -4.083207 -2.896935 -0.401628 0
M  V30 42 C -0.699021 1.707190 -1.180492 0
M  V30 43 C -1.618584 1.822357 0.920900 0
M  V30 44 C 5.584372 5.193553 -0.754944 0
M  V30 45 C -4.236077 -5.195942 -0.755897 0
M  V30 46 H 3.345332 -0.308114 2.206574 0
M  V30 47 H -3.046313 0.930615 -2.834912 0
M  V30 48 H 2.690810 4.728018 -0.380194 0
M  V30 49 H -2.874025 -3.131051 1.570035 0
M  V30 50 H 6.730755 -2.077009 0.299316 0
M  V30 51 H 5.186391 -2.049435 -0.589559 0
M  V30 52 H 6.369516 -0.229552 -1.524665 0
M  V30 53 H 7.093607 0.265289 0.028903 0
M  V30 54 H 3.124348 -2.336788 0.013560 0
M  V30 55 H 2.525223 -0.816190 -0.579345 0
M  V30 56 H 4.268067 -3.378382 1.399804 0
M  V30 57 H 5.744317 -3.168706 2.359869 0
M  V30 58 H 4.172736 -2.578368 3.004691 0
M  V30 59 H 5.389308 -0.474917 3.449447 0
M  V30 60 H 6.880599 -1.023751 2.613248 0
M  V30 61 H 6.089335 0.515956 2.146733 0
M  V30 62 H 6.173398 2.306597 -1.481885 0
M  V30 63 H 0.638265 -2.306255 -0.923952 0
M  V30 64 H 1.738847 -1.224221 3.016356 0
M  V30 65 H -3.881738 2.199549 -0.156798 0
M  V30 66 H -3.067839 3.060242 -1.509340 0
M  V30 67 H -5.427071 -0.170465 -3.763052 0
M  V30 68 H -6.815219 0.907302 -3.544098 0
M  V30 69 H -6.858473 0.290281 -1.002413 0
M  V30 70 H -7.093607 -1.085813 -2.124023 0
M  V30 71 H -0.451281 -1.798782 3.763052 0
M  V30 72 H -1.835887 -0.640821 -1.269540 0
M  V30 73 H -6.165281 -2.654741 -0.566668 0
M  V30 74 H -6.674905 2.883398 -2.431082 0
M  V30 75 H -5.160745 3.553224 -1.861217 0
M  V30 76 H -6.006481 2.296348 -0.873592 0
M  V30 77 H 1.379472 1.476368 -1.319136 0
M  V30 78 H -0.289175 1.731371 2.554564 0
M  V30 79 H -0.800194 1.721053 -2.278206 0
M  V30 80 H -2.481113 1.929648 1.599293 0
M  V30 81 H 5.622695 6.150597 -1.321516 0
M  V30 82 H 5.312799 5.406578 0.303425 0
M  V30 83 H 6.580930 4.701883 -0.807313 0
M  V30 84 H -4.321569 -6.150597 -0.190543 0
M  V30 85 H -5.121199 -5.084860 -1.421385 0
M  V30 86 H -3.299923 -5.211172 -1.357524 0
M  V30 END ATOM
M  V30 BEGIN BOND
M  V30 1 1 1 17
M  V30 2 1 31 1
M  V30 3 1 2 21
M  V30 4 1 2 44
M  V30 5 1 3 20
M  V30 6 1 3 48
M  V30 7 1 28 4
M  V30 8 1 4 36
M  V30 9 1 5 34
M  V30 10 1 5 49
M  V30 11 1 6 41
M  V30 12 1 6 45
M  V30 13 1 7 9
M  V30 14 1 10 7
M  V30 15 1 7 15
M  V30 16 1 7 16
M  V30 17 1 24 8
M  V30 18 1 8 27
M  V30 19 1 8 38
M  V30 20 1 9 11
M  V30 21 1 9 13
M  V30 22 1 9 46
M  V30 23 1 12 10
M  V30 24 1 10 50
M  V30 25 1 10 51
M  V30 26 1 14 11
M  V30 27 2 17 11
M  V30 28 1 14 12
M  V30 29 1 12 52
M  V30 30 1 12 53
M  V30 31 1 13 18
M  V30 32 1 13 54
M  V30 33 1 13 55
M  V30 34 2 19 14
M  V30 35 1 15 56
M  V30 36 1 15 57
M  V30 37 1 15 58
M  V30 38 1 16 59
M  V30 39 1 16 60
M  V30 40 1 16 61
M  V30 41 1 17 20
M  V30 42 2 18 22
M  V30 43 1 18 23
M  V30 44 1 21 19
M  V30 45 1 19 62
M  V30 46 2 21 20
M  V30 47 1 28 22
M  V30 48 1 22 63
M  V30 49 2 23 32
M  V30 50 1 23 64
M  V30 51 1 25 24
M  V30 52 1 24 26
M  V30 53 1 24 47
M  V30 54 1 25 29
M  V30 55 2 35 25
M  V30 56 1 26 33
M  V30 57 1 26 65
M  V30 58 1 26 66
M  V30 59 1 27 30
M  V30 60 1 27 67
M  V30 61 1 27 68
M  V30 62 2 34 28
M  V30 63 1 30 29
M  V30 64 2 29 37
M  V30 65 1 30 69
M  V30 66 1 30 70
M  V30 67 1 39 31
M  V30 68 2 31 40
M  V30 69 1 32 34
M  V30 70 1 32 71
M  V30 71 1 33 42
M  V30 72 2 33 43
M  V30 73 1 36 35
M  V30 74 1 35 72
M  V30 75 2 36 41
M  V30 76 1 37 41
M  V30 77 1 37 73
M  V30 78 1 38 74
M  V30 79 1 38 75
M  V30 80 1 38 76
M  V30 81 2 42 39
M  V30 82 1 39 77
M  V30 83 1 40 43
M  V30 84 1 40 78
M  V30 85 1 42 79
M  V30 86 1 43 80
M  V30 87 1 44 81
M  V30 88 1 44 82
M  V30 89 1 44 83
M  V30 90 1 45 84
M  V30 91 1 45 85
M  V30 92 1 45 86
M  V30 END BOND
M  V30 END CTAB
M  END
