
  Chem3D Core 15.003181610113D

 56 59  0  0  0  0  0  0  0  0999 V2000
   -3.6357   -3.7147   -0.7827 C   0  0  0  0  0  0  0  0  0  0  0  0
   -3.5672   -4.9668   -1.2705 C   0  0  0  0  0  0  0  0  0  0  0  0
   -2.4007   -5.4957   -1.6762 C   0  0  0  0  0  0  0  0  0  0  0  0
   -1.2762   -4.7686   -1.5943 C   0  0  0  0  0  0  0  0  0  0  0  0
   -1.3802   -3.5290   -1.1048 C   0  0  0  0  0  0  0  0  0  0  0  0
   -2.5231   -2.9678   -0.6974 C   0  0  0  0  0  0  0  0  0  0  0  0
   -2.2090   -1.7217   -0.2786 C   0  0  0  0  0  0  0  0  0  0  0  0
   -0.4698   -2.6738   -0.9317 N   0  0  0  0  0  0  0  0  0  0  0  0
   -0.8703   -1.5670   -0.4494 C   0  0  0  0  0  0  0  0  0  0  0  0
   -2.8424    0.6436   -0.3686 C   0  0  0  0  0  0  0  0  0  0  0  0
   -3.1348   -0.6861    0.3432 C   0  0  0  0  0  0  0  0  0  0  0  0
   -0.0368   -0.5332   -0.1815 C   0  0  0  0  0  0  0  0  0  0  0  0
   -0.4650    0.7100    0.1391 C   0  0  0  0  0  0  0  0  0  0  0  0
   -1.6651    1.3393    0.1435 N   0  0  0  0  0  0  0  0  0  0  0  0
   -1.8551    2.6209    0.6342 C   0  0  0  0  0  0  0  0  0  0  0  0
    1.3380   -0.6835   -0.2170 C   0  0  0  0  0  0  0  0  0  0  0  0
    2.1584    0.4137   -0.0427 O   0  0  0  0  0  0  0  0  0  0  0  0
    1.8960   -1.7482   -0.4013 O   0  0  0  0  0  0  0  0  0  0  0  0
    3.5324    0.3584   -0.2913 C   0  0  0  0  0  0  0  0  0  0  0  0
    3.8083    0.2290   -1.7909 C   0  0  0  0  0  0  0  0  0  0  0  0
   -0.8746    3.5711    0.5300 C   0  0  0  0  0  0  0  0  0  0  0  0
   -2.8639    2.8643    1.2599 O   0  0  0  0  0  0  0  0  0  0  0  0
   -0.8141    4.5968    1.4037 C   0  0  0  0  0  0  0  0  0  0  0  0
    0.0344    3.5510   -0.4656 C   0  0  0  0  0  0  0  0  0  0  0  0
    0.9898    4.4891   -0.5551 C   0  0  0  0  0  0  0  0  0  0  0  0
    1.0528    5.4868    0.3384 C   0  0  0  0  0  0  0  0  0  0  0  0
    0.1366    5.5426    1.3215 C   0  0  0  0  0  0  0  0  0  0  0  0
    2.0006    6.4066    0.2355 F   0  0  0  0  0  0  0  0  0  0  0  0
   -2.8663   -0.6150    1.8625 C   0  0  0  0  0  0  0  0  0  0  0  0
   -4.6503   -0.9416    0.1841 C   0  0  0  0  0  0  0  0  0  0  0  0
    4.1486    1.6487    0.2556 C   0  0  0  0  0  0  0  0  0  0  0  0
    0.1709    6.5240    2.2118 F   0  0  0  0  0  0  0  0  0  0  0  0
   -4.6256   -3.3605   -0.4761 H   0  0  0  0  0  0  0  0  0  0  0  0
   -4.4856   -5.5749   -1.3407 H   0  0  0  0  0  0  0  0  0  0  0  0
   -2.3650   -6.5240   -2.0729 H   0  0  0  0  0  0  0  0  0  0  0  0
   -0.3044   -5.1759   -1.9151 H   0  0  0  0  0  0  0  0  0  0  0  0
    0.5118   -2.9065   -1.1966 H   0  0  0  0  0  0  0  0  0  0  0  0
   -3.7330    1.3096   -0.3308 H   0  0  0  0  0  0  0  0  0  0  0  0
   -2.7126    0.4727   -1.4636 H   0  0  0  0  0  0  0  0  0  0  0  0
    0.2992    1.3912    0.5396 H   0  0  0  0  0  0  0  0  0  0  0  0
    3.9812   -0.4961    0.2699 H   0  0  0  0  0  0  0  0  0  0  0  0
    4.9035    0.2380   -1.9938 H   0  0  0  0  0  0  0  0  0  0  0  0
    3.4074   -0.7164   -2.2190 H   0  0  0  0  0  0  0  0  0  0  0  0
    3.3514    1.0735   -2.3556 H   0  0  0  0  0  0  0  0  0  0  0  0
   -1.5315    4.6901    2.2361 H   0  0  0  0  0  0  0  0  0  0  0  0
    0.0125    2.7873   -1.2613 H   0  0  0  0  0  0  0  0  0  0  0  0
    1.7222    4.4497   -1.3791 H   0  0  0  0  0  0  0  0  0  0  0  0
   -1.8026   -0.4118    2.1126 H   0  0  0  0  0  0  0  0  0  0  0  0
   -3.4758    0.1832    2.3435 H   0  0  0  0  0  0  0  0  0  0  0  0
   -3.1225   -1.5803    2.3556 H   0  0  0  0  0  0  0  0  0  0  0  0
   -5.0012   -1.7975    0.8001 H   0  0  0  0  0  0  0  0  0  0  0  0
   -5.2522   -0.0835    0.5607 H   0  0  0  0  0  0  0  0  0  0  0  0
   -4.9351   -1.0867   -0.8828 H   0  0  0  0  0  0  0  0  0  0  0  0
    5.2522    1.6653    0.1051 H   0  0  0  0  0  0  0  0  0  0  0  0
    3.9570    1.7546    1.3482 H   0  0  0  0  0  0  0  0  0  0  0  0
    3.7203    2.5447   -0.2496 H   0  0  0  0  0  0  0  0  0  0  0  0
  1  2  1  0      
  6  1  2  0      
  1 33  1  0      
  2  3  2  0      
  2 34  1  0      
  3  4  1  0      
  3 35  1  0      
  5  4  2  0      
  4 36  1  0      
  6  5  1  0      
  8  5  1  0      
  7  6  1  0      
  9  7  2  0      
 11  7  1  0      
  9  8  1  0      
  8 37  1  0      
 12  9  1  0      
 10 11  1  0      
 10 14  1  0      
 10 38  1  0      
 10 39  1  0      
 11 29  1  0      
 11 30  1  0      
 13 12  2  0      
 12 16  1  0      
 14 13  1  0      
 13 40  1  0      
 14 15  1  0      
 15 21  1  0      
 15 22  2  0      
 16 17  1  0      
 16 18  2  0      
 17 19  1  0      
 19 20  1  0      
 19 31  1  0      
 19 41  1  0      
 20 42  1  0      
 20 43  1  0      
 20 44  1  0      
 21 23  1  0      
 21 24  2  0      
 23 27  2  0      
 23 45  1  0      
 25 24  1  0      
 24 46  1  0      
 26 25  2  0      
 25 47  1  0      
 27 26  1  0      
 26 28  1  0      
 27 32  1  0      
 29 48  1  0      
 29 49  1  0      
 29 50  1  0      
 30 51  1  0      
 30 52  1  0      
 30 53  1  0      
 31 54  1  0      
 31 55  1  0      
 31 56  1  0      
M  END
