
  Chem3D Core 15.008141512263D

 76 79  0  0  0  0  0  0  0  0999 V2000
   -2.0834   -1.3716   -3.5712 S   0  0  0  0  0  0  0  0  0  0  0  0
   -1.9993   -1.0599   -4.9964 O   0  0  0  0  0  0  0  0  0  0  0  0
   -1.1227   -2.3501   -3.0312 O   0  0  0  0  0  0  0  0  0  0  0  0
    1.5055   -0.0546    4.3553 O   0  0  0  0  0  0  0  0  0  0  0  0
    1.5235    4.2120    2.5264 O   0  0  0  0  0  0  0  0  0  0  0  0
    1.3555    2.5798    4.6070 O   0  0  0  0  0  0  0  0  0  0  0  0
    2.2801    4.2628   -0.0215 O   0  0  0  0  0  0  0  0  0  0  0  0
    1.5252    2.6601   -1.2742 N   0  0  0  0  0  0  0  0  0  0  0  0
   -4.5388    1.0679   -3.2115 C   0  0  0  0  0  0  0  0  0  0  0  0
   -4.5296   -0.3372   -2.5555 C   0  0  0  0  0  0  0  0  0  0  0  0
   -3.6876   -1.3821   -2.7734 C   0  0  0  0  0  0  0  0  0  0  0  0
   -3.6893    1.2756   -4.4814 C   0  0  0  0  0  0  0  0  0  0  0  0
   -5.9778    1.4247   -3.6865 C   0  0  0  0  0  0  0  0  0  0  0  0
   -4.0910    2.1176   -2.1705 C   0  0  0  0  0  0  0  0  0  0  0  0
   -5.5128   -0.5540   -1.6520 C   0  0  0  0  0  0  0  0  0  0  0  0
   -3.9336   -2.5714   -2.1819 C   0  0  0  0  0  0  0  0  0  0  0  0
   -1.0013   -0.1014   -2.8834 C   0  0  0  0  0  0  0  0  0  0  0  0
   -5.7470   -1.7304   -1.0560 C   0  0  0  0  0  0  0  0  0  0  0  0
    2.2624   -2.2226   -1.1030 C   0  0  0  0  0  0  0  0  0  0  0  0
    3.3966   -2.0865   -0.0882 C   0  0  0  0  0  0  0  0  0  0  0  0
   -4.9616   -2.7698   -1.3482 C   0  0  0  0  0  0  0  0  0  0  0  0
    3.2067   -1.6877    1.1922 C   0  0  0  0  0  0  0  0  0  0  0  0
    1.8596   -1.3222    1.7864 C   0  0  0  0  0  0  0  0  0  0  0  0
    1.7698    0.1749    2.0171 C   0  0  0  0  0  0  0  0  0  0  0  0
   -0.0864    0.5545   -3.6188 C   0  0  0  0  0  0  0  0  0  0  0  0
   -1.0805    0.1850   -1.5723 C   0  0  0  0  0  0  0  0  0  0  0  0
    2.6142   -1.7184   -2.5151 C   0  0  0  0  0  0  0  0  0  0  0  0
    1.7878   -3.6839   -1.1420 C   0  0  0  0  0  0  0  0  0  0  0  0
    4.6495   -2.4064   -0.4686 C   0  0  0  0  0  0  0  0  0  0  0  0
    4.2655   -1.5950    2.0201 C   0  0  0  0  0  0  0  0  0  0  0  0
    0.6627    1.7330   -1.7390 C   0  0  0  0  0  0  0  0  0  0  0  0
    1.8770    1.0006    0.9637 C   0  0  0  0  0  0  0  0  0  0  0  0
    0.7229    1.4645   -3.0549 C   0  0  0  0  0  0  0  0  0  0  0  0
   -0.2726    1.0983   -1.0123 C   0  0  0  0  0  0  0  0  0  0  0  0
    1.7867    2.3384    1.0697 C   0  0  0  0  0  0  0  0  0  0  0  0
    1.5903    0.7137    3.2363 C   0  0  0  0  0  0  0  0  0  0  0  0
    5.6983   -2.3146    0.3613 C   0  0  0  0  0  0  0  0  0  0  0  0
    5.5069   -1.8991    1.6190 C   0  0  0  0  0  0  0  0  0  0  0  0
    1.6284    2.8715    2.2996 C   0  0  0  0  0  0  0  0  0  0  0  0
    1.5273    2.0514    3.3640 C   0  0  0  0  0  0  0  0  0  0  0  0
    1.9096    3.1135   -0.0481 C   0  0  0  0  0  0  0  0  0  0  0  0
    1.9669    3.1406   -2.0433 H   0  0  0  0  0  0  0  0  0  0  0  0
    1.7979   -0.9597    4.1730 H   0  0  0  0  0  0  0  0  0  0  0  0
    1.3407    4.3650    3.4675 H   0  0  0  0  0  0  0  0  0  0  0  0
    1.3212    1.8689    5.2665 H   0  0  0  0  0  0  0  0  0  0  0  0
   -3.8587    2.2766   -4.9380 H   0  0  0  0  0  0  0  0  0  0  0  0
   -2.6018    1.2777   -4.2740 H   0  0  0  0  0  0  0  0  0  0  0  0
   -3.9456    0.5301   -5.2665 H   0  0  0  0  0  0  0  0  0  0  0  0
   -6.0084    2.3854   -4.2481 H   0  0  0  0  0  0  0  0  0  0  0  0
   -6.7106    1.5770   -2.8666 H   0  0  0  0  0  0  0  0  0  0  0  0
   -6.3787    0.6344   -4.3619 H   0  0  0  0  0  0  0  0  0  0  0  0
   -4.7361    2.1218   -1.2643 H   0  0  0  0  0  0  0  0  0  0  0  0
   -3.0484    1.9318   -1.8328 H   0  0  0  0  0  0  0  0  0  0  0  0
   -4.1212    3.1479   -2.5918 H   0  0  0  0  0  0  0  0  0  0  0  0
   -6.2087    0.2488   -1.3655 H   0  0  0  0  0  0  0  0  0  0  0  0
   -3.2737   -3.4437   -2.3327 H   0  0  0  0  0  0  0  0  0  0  0  0
   -6.5786   -1.8477   -0.3409 H   0  0  0  0  0  0  0  0  0  0  0  0
    1.3945   -1.5870   -0.8077 H   0  0  0  0  0  0  0  0  0  0  0  0
   -5.1294   -3.7503   -0.8726 H   0  0  0  0  0  0  0  0  0  0  0  0
    0.9868   -1.6432    1.1809 H   0  0  0  0  0  0  0  0  0  0  0  0
    1.7317   -1.9093    2.7224 H   0  0  0  0  0  0  0  0  0  0  0  0
    0.0252    0.3592   -4.6976 H   0  0  0  0  0  0  0  0  0  0  0  0
   -1.8226   -0.3219   -0.9323 H   0  0  0  0  0  0  0  0  0  0  0  0
    1.7134   -1.7113   -3.1706 H   0  0  0  0  0  0  0  0  0  0  0  0
    3.0068   -0.6760   -2.4809 H   0  0  0  0  0  0  0  0  0  0  0  0
    3.3612   -2.3585   -3.0328 H   0  0  0  0  0  0  0  0  0  0  0  0
    0.9355   -3.8163   -1.8457 H   0  0  0  0  0  0  0  0  0  0  0  0
    1.4463   -4.0219   -0.1368 H   0  0  0  0  0  0  0  0  0  0  0  0
    2.6045   -4.3650   -1.4722 H   0  0  0  0  0  0  0  0  0  0  0  0
    4.8502   -2.7658   -1.4897 H   0  0  0  0  0  0  0  0  0  0  0  0
    4.1200   -1.2627    3.0622 H   0  0  0  0  0  0  0  0  0  0  0  0
    2.0807    0.5315   -0.0109 H   0  0  0  0  0  0  0  0  0  0  0  0
    1.4624    1.9816   -3.6907 H   0  0  0  0  0  0  0  0  0  0  0  0
   -0.4193    1.3206    0.0560 H   0  0  0  0  0  0  0  0  0  0  0  0
    6.7106   -2.5825    0.0153 H   0  0  0  0  0  0  0  0  0  0  0  0
    6.3575   -1.8182    2.3159 H   0  0  0  0  0  0  0  0  0  0  0  0
  1  2  2  0      
  1  3  2  0      
  1 11  1  0      
  1 17  1  0      
  4 36  1  0      
  4 43  1  0      
  5 39  1  0      
  5 44  1  0      
  6 40  1  0      
  6 45  1  0      
  7 41  2  0      
  8 31  1  0      
  8 41  1  0      
  8 42  1  0      
  9 10  1  0      
  9 12  1  0      
  9 13  1  0      
  9 14  1  0      
 10 11  1  0      
 10 15  2  0      
 11 16  2  0      
 12 46  1  0      
 12 47  1  0      
 12 48  1  0      
 13 49  1  0      
 13 50  1  0      
 13 51  1  0      
 14 52  1  0      
 14 53  1  0      
 14 54  1  0      
 18 15  1  0      
 15 55  1  0      
 16 21  1  0      
 16 56  1  0      
 17 25  1  0      
 17 26  2  0      
 21 18  2  0      
 18 57  1  0      
 19 20  1  0      
 19 27  1  0      
 19 28  1  0      
 19 58  1  0      
 20 22  1  0      
 20 29  2  0      
 21 59  1  0      
 22 23  1  0      
 22 30  2  0      
 23 24  1  0      
 23 60  1  0      
 23 61  1  0      
 24 32  1  0      
 24 36  2  0      
 25 33  2  0      
 25 62  1  0      
 34 26  1  0      
 26 63  1  0      
 27 64  1  0      
 27 65  1  0      
 27 66  1  0      
 28 67  1  0      
 28 68  1  0      
 28 69  1  0      
 37 29  1  0      
 29 70  1  0      
 30 38  1  0      
 30 71  1  0      
 33 31  1  0      
 31 34  2  0      
 32 35  2  0      
 32 72  1  0      
 33 73  1  0      
 34 74  1  0      
 35 39  1  0      
 35 41  1  0      
 40 36  1  0      
 38 37  2  0      
 37 75  1  0      
 38 76  1  0      
 39 40  2  0      
M  END
