
  Chem3D Core 14.010291511493D

  0  0  0     0  0              0 V3000
M  V30 BEGIN CTAB
M  V30 COUNTS 37 38 0 0 0
M  V30 BEGIN ATOM
M  V30 1 O 0.339287 -0.505737 0.809061 0
M  V30 2 N 3.028734 -0.998477 0.164393 0
M  V30 3 N 2.973543 -2.740280 1.408595 0
M  V30 4 C -0.519720 2.096186 0.030024 0
M  V30 5 C -1.463779 0.954818 0.408050 0
M  V30 6 C -1.013393 -0.267834 0.778883 0
M  V30 7 C 2.328627 -1.830895 0.813233 0
M  V30 8 C 0.484840 2.462919 1.135606 0
M  V30 9 C 0.180246 1.834210 -1.314124 0
M  V30 10 C 4.472523 -1.259840 0.244932 0
M  V30 11 C -2.789606 1.185376 0.360620 0
M  V30 12 C 0.824889 -1.825747 0.942333 0
M  V30 13 C 4.414690 -2.519455 1.131294 0
M  V30 14 C -1.939202 -1.208612 1.062285 0
M  V30 15 C -3.263514 -0.986628 1.019342 0
M  V30 16 C -3.683332 0.235829 0.664431 0
M  V30 17 C -4.266760 -2.064696 1.356898 0
M  V30 18 H 2.608103 -0.196400 -0.362008 0
M  V30 19 H -1.130864 3.023595 -0.122021 0
M  V30 20 H 1.018954 3.409094 0.887926 0
M  V30 21 H -0.033144 2.616789 2.109954 0
M  V30 22 H 1.272586 1.693063 1.281199 0
M  V30 23 H 0.780232 2.717885 -1.631154 0
M  V30 24 H -0.563931 1.628929 -2.117643 0
M  V30 25 H 0.876819 0.969041 -1.270760 0
M  V30 26 H 4.993095 -0.405115 0.732977 0
M  V30 27 H 4.889222 -1.456239 -0.768620 0
M  V30 28 H -3.175290 2.174447 0.061774 0
M  V30 29 H 0.537156 -2.227733 1.940983 0
M  V30 30 H 0.411034 -2.453908 0.119690 0
M  V30 31 H 4.835349 -3.409094 0.607400 0
M  V30 32 H 4.963671 -2.372054 2.090251 0
M  V30 33 H -1.627186 -2.223134 1.351969 0
M  V30 34 H -4.762376 0.456678 0.614483 0
M  V30 35 H -3.792288 -2.981838 1.771631 0
M  V30 36 H -4.993095 -1.698167 2.117643 0
M  V30 37 H -4.831907 -2.359268 0.443336 0
M  V30 END ATOM
M  V30 BEGIN BOND
M  V30 1 1 1 6
M  V30 2 1 1 12
M  V30 3 1 7 2
M  V30 4 1 10 2
M  V30 5 1 2 18
M  V30 6 2 3 7
M  V30 7 1 13 3
M  V30 8 1 4 5
M  V30 9 1 4 8
M  V30 10 1 4 9
M  V30 11 1 4 19
M  V30 12 1 5 6
M  V30 13 2 5 11
M  V30 14 2 6 14
M  V30 15 1 7 12
M  V30 16 1 8 20
M  V30 17 1 8 21
M  V30 18 1 8 22
M  V30 19 1 9 23
M  V30 20 1 9 24
M  V30 21 1 9 25
M  V30 22 1 10 13
M  V30 23 1 10 26
M  V30 24 1 10 27
M  V30 25 1 16 11
M  V30 26 1 11 28
M  V30 27 1 12 29
M  V30 28 1 12 30
M  V30 29 1 13 31
M  V30 30 1 13 32
M  V30 31 1 14 15
M  V30 32 1 14 33
M  V30 33 2 15 16
M  V30 34 1 15 17
M  V30 35 1 16 34
M  V30 36 1 17 35
M  V30 37 1 17 36
M  V30 38 1 17 37
M  V30 END BOND
M  V30 END CTAB
M  END
