
  Chem3D Core 14.010291511513D

  0  0  0     0  0              0 V3000
M  V30 BEGIN CTAB
M  V30 COUNTS 72 75 0 0 0
M  V30 BEGIN ATOM
M  V30 1 S -1.629018 -3.300916 -1.223870 0
M  V30 2 O -0.640174 -4.269737 -0.735458 0
M  V30 3 O -2.930634 -3.779439 -1.687090 0
M  V30 4 O 0.406831 1.743024 -3.504089 0
M  V30 5 O 4.403194 2.116412 -3.528702 0
M  V30 6 N -5.000916 -0.821877 3.797178 0
M  V30 7 N -2.034213 -2.952882 0.398178 0
M  V30 8 N 2.964735 -1.113569 -2.085649 0
M  V30 9 N 6.034456 -0.076119 -2.455733 0
M  V30 10 N 6.320984 -1.166755 -1.941646 0
M  V30 11 N 2.711911 0.849933 -3.004771 0
M  V30 12 C -4.885961 -1.479795 2.498370 0
M  V30 13 C -5.994368 -2.548148 2.482750 0
M  V30 14 C -7.050545 -2.006862 3.462398 0
M  V30 15 C -6.441806 -0.688341 3.965240 0
M  V30 16 C -3.484626 -2.003024 2.140736 0
M  V30 17 C -3.393528 -2.493277 0.685187 0
M  V30 18 C -4.403776 -1.566532 4.894289 0
M  V30 19 C -1.005733 -1.778400 -1.928079 0
M  V30 20 C 0.309357 -1.520328 -1.996100 0
M  V30 21 C 0.829237 -0.379342 -2.505971 0
M  V30 22 C -1.855990 -0.857035 -2.391630 0
M  V30 23 C 4.222154 -0.997387 -2.093868 0
M  V30 24 C 2.181692 -0.209440 -2.533357 0
M  V30 25 C -0.046912 0.555740 -2.974206 0
M  V30 26 C 5.235036 -1.775374 -1.697972 0
M  V30 27 C 4.783356 0.106267 -2.584440 0
M  V30 28 C -1.366673 0.280021 -2.899699 0
M  V30 29 C 5.161298 -3.138255 -1.074704 0
M  V30 30 C 3.964059 1.078700 -3.064407 0
M  V30 31 C 6.522172 -3.832361 -0.913614 0
M  V30 32 C 6.993778 0.950051 -2.897838 0
M  V30 33 C -0.487341 2.717037 -3.974030 0
M  V30 34 C 6.376369 -5.227460 -0.290658 0
M  V30 35 C 0.326731 3.907780 -4.483975 0
M  V30 36 C -0.576571 5.026693 -5.018868 0
M  V30 37 H -1.817987 -3.779622 0.981229 0
M  V30 38 H 2.613004 -2.010765 -1.683384 0
M  V30 39 H -5.147633 -0.708598 1.727248 0
M  V30 40 H -6.411220 -2.692523 1.459376 0
M  V30 41 H -5.604090 -3.530926 2.835630 0
M  V30 42 H -7.203826 -2.717511 4.308364 0
M  V30 43 H -8.036428 -1.840539 2.970070 0
M  V30 44 H -6.806646 0.151855 3.325065 0
M  V30 45 H -6.739694 -0.441637 5.009350 0
M  V30 46 H -2.740516 -1.184373 2.293020 0
M  V30 47 H -3.199151 -2.846221 2.812432 0
M  V30 48 H -3.678998 -1.658965 0.001580 0
M  V30 49 H -4.112845 -3.333582 0.542536 0
M  V30 50 H -4.604187 -1.058505 5.865333 0
M  V30 51 H -3.295422 -1.597823 4.797369 0
M  V30 52 H -4.783454 -2.609618 4.968251 0
M  V30 53 H 0.939326 -2.326186 -1.596222 0
M  V30 54 H -2.946274 -1.019115 -2.358129 0
M  V30 55 H -2.123595 0.993914 -3.260525 0
M  V30 56 H 4.674405 -3.032414 -0.076605 0
M  V30 57 H 4.495822 -3.771228 -1.708205 0
M  V30 58 H 7.014956 -3.928670 -1.911062 0
M  V30 59 H 7.188141 -3.213677 -0.265097 0
M  V30 60 H 8.036428 0.609845 -2.703647 0
M  V30 61 H 6.908181 1.131652 -3.993329 0
M  V30 62 H 6.850121 1.900437 -2.335248 0
M  V30 63 H -1.088049 2.298402 -4.814831 0
M  V30 64 H -1.144488 3.054823 -3.139047 0
M  V30 65 H 7.369150 -5.721102 -0.178251 0
M  V30 66 H 5.910495 -5.169567 0.719609 0
M  V30 67 H 5.740613 -5.886660 -0.924921 0
M  V30 68 H 0.961439 4.309207 -3.657392 0
M  V30 69 H 1.016029 3.570222 -5.295216 0
M  V30 70 H 0.028503 5.886660 -5.387997 0
M  V30 71 H -1.204497 4.665809 -5.865333 0
M  V30 72 H -1.257522 5.407786 -4.223810 0
M  V30 END ATOM
M  V30 BEGIN BOND
M  V30 1 2 1 2
M  V30 2 2 1 3
M  V30 3 1 1 7
M  V30 4 1 1 19
M  V30 5 1 4 25
M  V30 6 1 4 33
M  V30 7 2 5 30
M  V30 8 1 6 12
M  V30 9 1 6 15
M  V30 10 1 6 18
M  V30 11 1 7 17
M  V30 12 1 7 37
M  V30 13 1 8 23
M  V30 14 1 24 8
M  V30 15 1 8 38
M  V30 16 1 10 9
M  V30 17 1 9 27
M  V30 18 1 9 32
M  V30 19 2 26 10
M  V30 20 2 11 24
M  V30 21 1 30 11
M  V30 22 1 12 13
M  V30 23 1 12 16
M  V30 24 1 12 39
M  V30 25 1 13 14
M  V30 26 1 13 40
M  V30 27 1 13 41
M  V30 28 1 14 15
M  V30 29 1 14 42
M  V30 30 1 14 43
M  V30 31 1 15 44
M  V30 32 1 15 45
M  V30 33 1 16 17
M  V30 34 1 16 46
M  V30 35 1 16 47
M  V30 36 1 17 48
M  V30 37 1 17 49
M  V30 38 1 18 50
M  V30 39 1 18 51
M  V30 40 1 18 52
M  V30 41 1 19 20
M  V30 42 2 19 22
M  V30 43 2 20 21
M  V30 44 1 20 53
M  V30 45 1 21 24
M  V30 46 1 21 25
M  V30 47 1 28 22
M  V30 48 1 22 54
M  V30 49 1 26 23
M  V30 50 2 27 23
M  V30 51 2 25 28
M  V30 52 1 26 29
M  V30 53 1 27 30
M  V30 54 1 28 55
M  V30 55 1 29 31
M  V30 56 1 29 56
M  V30 57 1 29 57
M  V30 58 1 31 34
M  V30 59 1 31 58
M  V30 60 1 31 59
M  V30 61 1 32 60
M  V30 62 1 32 61
M  V30 63 1 32 62
M  V30 64 1 33 35
M  V30 65 1 33 63
M  V30 66 1 33 64
M  V30 67 1 34 65
M  V30 68 1 34 66
M  V30 69 1 34 67
M  V30 70 1 35 36
M  V30 71 1 35 68
M  V30 72 1 35 69
M  V30 73 1 36 70
M  V30 74 1 36 71
M  V30 75 1 36 72
M  V30 END BOND
M  V30 END CTAB
M  END
