
  Chem3D Core 15.001121613423D

  0  0  0     0  0              0 V3000
M  V30 BEGIN CTAB
M  V30 COUNTS 66 70 0 0 0
M  V30 BEGIN ATOM
M  V30 1 C 2.412846 -0.762156 -0.081072 0
M  V30 2 C 1.805738 -0.545167 -1.493996 0
M  V30 3 C 1.330296 -1.009380 0.985763 0
M  V30 4 C 1.067923 0.803262 -1.363427 0
M  V30 5 C 0.767695 -1.678637 -1.644300 0
M  V30 6 N -0.009659 -0.564905 0.428280 0 CHG=1
M  V30 7 C -0.428938 -1.493988 -0.698289 0
M  V30 8 C 0.139035 0.840560 -0.137442 0
M  V30 9 C -1.069377 -0.508960 1.526657 0
M  V30 10 C -1.238877 -1.816670 2.311756 0
M  V30 11 O -2.312560 -1.636512 3.206811 0
M  V30 12 C -2.630394 -2.804201 3.939764 0
M  V30 13 C -3.743527 -2.500075 4.920076 0
M  V30 14 C -5.009265 -2.888277 4.681977 0
M  V30 15 C -5.989743 -2.614368 5.556848 0
M  V30 16 C -5.714732 -1.944789 6.686425 0
M  V30 17 C -4.456542 -1.551188 6.934937 0
M  V30 18 C -3.481150 -1.828751 6.055852 0
M  V30 19 C 2.908169 -0.601288 -2.597231 0
M  V30 20 C 2.567860 -0.441625 -4.085478 0
M  V30 21 C 4.029439 0.399688 -2.308207 0
M  V30 22 O 3.444074 -1.919108 -2.532292 0
M  V30 23 C 3.569806 -0.569790 -4.981184 0
M  V30 24 C 3.373027 -0.451966 -6.303112 0
M  V30 25 C 2.145202 -0.200953 -6.776533 0
M  V30 26 C 1.130159 -0.073632 -5.911169 0
M  V30 27 C 1.344842 -0.194596 -4.591293 0
M  V30 28 C 3.935374 1.676783 -2.726847 0
M  V30 29 C 4.906375 2.570917 -2.485885 0
M  V30 30 C 6.005899 2.201261 -1.814071 0
M  V30 31 C 6.121346 0.934540 -1.390528 0
M  V30 32 C 5.143839 0.048523 -1.637510 0
M  V30 33 H 3.116662 -1.625722 -0.060927 0
M  V30 34 H 3.020145 0.127976 0.207664 0
M  V30 35 H 1.582521 -0.446484 1.915195 0
M  V30 36 H 1.294045 -2.091522 1.251807 0
M  V30 37 H 1.792952 1.642838 -1.267919 0
M  V30 38 H 0.470233 1.031631 -2.270198 0
M  V30 39 H 0.392344 -1.787992 -2.683584 0
M  V30 40 H 1.260808 -2.654587 -1.420463 0
M  V30 41 H -1.306562 -1.065982 -1.236917 0
M  V30 42 H -0.738266 -2.496038 -0.326539 0
M  V30 43 H 0.548070 1.523290 0.644751 0
M  V30 44 H -0.853213 1.256458 -0.433560 0
M  V30 45 H -0.808348 0.292276 2.259532 0
M  V30 46 H -2.051383 -0.226737 1.077094 0
M  V30 47 H -1.479955 -2.670719 1.642346 0
M  V30 48 H -0.324768 -2.054323 2.901608 0
M  V30 49 H -2.932221 -3.610051 3.233499 0
M  V30 50 H -1.729444 -3.150784 4.495502 0
M  V30 51 H -5.253687 -3.437098 3.757521 0
M  V30 52 H -7.022969 -2.938589 5.347325 0
M  V30 53 H -6.518811 -1.717924 7.406233 0
M  V30 54 H -4.224676 -0.998844 7.861009 0
M  V30 55 H -2.451293 -1.497725 6.270100 0
M  V30 56 H 4.186041 -1.967732 -3.136418 0
M  V30 57 H 4.599755 -0.772838 -4.642783 0
M  V30 58 H 4.219589 -0.559921 -7.002026 0
M  V30 59 H 1.972745 -0.102455 -7.861009 0
M  V30 60 H 0.114094 0.129939 -6.290170 0
M  V30 61 H 0.463510 -0.082376 -3.949573 0
M  V30 62 H 3.046294 2.014321 -3.284910 0
M  V30 63 H 4.801842 3.610051 -2.840563 0
M  V30 64 H 6.807218 2.931354 -1.612610 0
M  V30 65 H 7.022969 0.622454 -0.836828 0
M  V30 66 H 5.284930 -0.978885 -1.266525 0
M  V30 END ATOM
M  V30 BEGIN BOND
M  V30 1 1 1 2
M  V30 2 1 3 1
M  V30 3 1 1 33
M  V30 4 1 1 34
M  V30 5 1 2 4
M  V30 6 1 2 5
M  V30 7 1 2 19
M  V30 8 1 6 3
M  V30 9 1 3 35
M  V30 10 1 3 36
M  V30 11 1 4 8
M  V30 12 1 4 37
M  V30 13 1 4 38
M  V30 14 1 5 7
M  V30 15 1 5 39
M  V30 16 1 5 40
M  V30 17 1 6 7
M  V30 18 1 6 8
M  V30 19 1 6 9
M  V30 20 1 7 41
M  V30 21 1 7 42
M  V30 22 1 8 43
M  V30 23 1 8 44
M  V30 24 1 9 10
M  V30 25 1 9 45
M  V30 26 1 9 46
M  V30 27 1 10 11
M  V30 28 1 10 47
M  V30 29 1 10 48
M  V30 30 1 11 12
M  V30 31 1 12 13
M  V30 32 1 12 49
M  V30 33 1 12 50
M  V30 34 1 13 14
M  V30 35 2 13 18
M  V30 36 2 14 15
M  V30 37 1 14 51
M  V30 38 1 15 16
M  V30 39 1 15 52
M  V30 40 2 16 17
M  V30 41 1 16 53
M  V30 42 1 17 18
M  V30 43 1 17 54
M  V30 44 1 18 55
M  V30 45 1 19 20
M  V30 46 1 19 21
M  V30 47 1 19 22
M  V30 48 1 20 23
M  V30 49 2 20 27
M  V30 50 1 21 28
M  V30 51 2 21 32
M  V30 52 1 22 56
M  V30 53 2 23 24
M  V30 54 1 23 57
M  V30 55 1 24 25
M  V30 56 1 24 58
M  V30 57 2 25 26
M  V30 58 1 25 59
M  V30 59 1 26 27
M  V30 60 1 26 60
M  V30 61 1 27 61
M  V30 62 2 28 29
M  V30 63 1 28 62
M  V30 64 1 29 30
M  V30 65 1 29 63
M  V30 66 2 30 31
M  V30 67 1 30 64
M  V30 68 1 31 32
M  V30 69 1 31 65
M  V30 70 1 32 66
M  V30 END BOND
M  V30 END CTAB
M  END
