
  Chem3D Core 14.010291510413D

  0  0  0     0  0              0 V3000
M  V30 BEGIN CTAB
M  V30 COUNTS 68 71 0 0 0
M  V30 BEGIN ATOM
M  V30 1 O -0.007849 -3.899918 1.833339 0
M  V30 2 O -4.953192 -3.528281 -2.717356 0
M  V30 3 O 6.504983 4.633166 0.826134 0
M  V30 4 O 6.295210 2.916782 -0.637967 0
M  V30 5 C 0.185358 -1.077458 0.793140 0
M  V30 6 C 0.165087 0.456414 1.023127 0
M  V30 7 C -1.091798 -1.812658 1.252221 0
M  V30 8 C -2.295068 -1.230486 0.467066 0
M  V30 9 C -3.669412 -1.911364 0.753871 0
M  V30 10 C 1.580715 0.849405 0.511700 0
M  V30 11 C -3.550279 -3.459418 0.687898 0
M  V30 12 C -1.016049 0.987445 0.187271 0
M  V30 13 C -2.340590 0.308843 0.575676 0
M  V30 14 C -1.021816 -3.328683 1.039126 0
M  V30 15 C 1.544732 -1.499760 1.356778 0
M  V30 16 C 2.468035 -0.314238 1.023873 0
M  V30 17 C -2.327222 -4.003103 1.438390 0
M  V30 18 C -4.702018 -1.439669 -0.312172 0
M  V30 19 C 0.014143 0.849905 2.509194 0
M  V30 20 C 2.180403 2.239819 0.849241 0
M  V30 21 C -3.642760 -3.964206 -0.761689 0
M  V30 22 C -4.204903 -1.531412 2.155495 0
M  V30 23 C -5.732575 -2.513962 -0.681040 0
M  V30 24 C -5.046106 -3.720943 -1.324555 0
M  V30 25 C 3.587230 2.393959 0.218239 0
M  V30 26 C 1.278560 3.400796 0.394479 0
M  V30 27 C 4.388007 3.612131 0.711350 0
M  V30 28 C 5.820280 3.649367 0.201702 0
M  V30 29 H 0.264026 -1.259562 -0.310326 0
M  V30 30 H -1.239005 -1.636948 2.342030 0
M  V30 31 H -2.060994 -1.446278 -0.606210 0
M  V30 32 H 1.549786 0.780351 -0.605178 0
M  V30 33 H -4.432436 -3.919043 1.203905 0
M  V30 34 H -0.018635 -4.853869 1.724106 0
M  V30 35 H -4.604025 -4.324384 -3.125539 0
M  V30 36 H 5.942615 5.105037 1.460693 0
M  V30 37 H -1.135541 2.085788 0.309705 0
M  V30 38 H -0.827619 0.813669 -0.898191 0
M  V30 39 H -2.604840 0.612630 1.612212 0
M  V30 40 H -3.143673 0.721325 -0.079012 0
M  V30 41 H -0.775194 -3.564698 -0.021057 0
M  V30 42 H 1.928641 -2.439601 0.898129 0
M  V30 43 H 1.470038 -1.652685 2.458269 0
M  V30 44 H 3.215172 -0.608018 0.249181 0
M  V30 45 H 3.030990 -0.024852 1.941859 0
M  V30 46 H -2.246067 -5.105037 1.282595 0
M  V30 47 H -2.476200 -3.862723 2.535489 0
M  V30 48 H -5.227527 -0.517439 0.028235 0
M  V30 49 H -4.192320 -1.162406 -1.264920 0
M  V30 50 H -0.077268 1.950950 2.629609 0
M  V30 51 H -0.884849 0.417182 2.994083 0
M  V30 52 H 0.882003 0.530666 3.125539 0
M  V30 53 H 2.301426 2.310108 1.958037 0
M  V30 54 H -2.874021 -3.448210 -1.380242 0
M  V30 55 H -3.410321 -5.053350 -0.823120 0
M  V30 56 H -4.426310 -0.446643 2.251718 0
M  V30 57 H -5.161301 -2.053356 2.382885 0
M  V30 58 H -3.487743 -1.790078 2.964184 0
M  V30 59 H -6.281176 -2.820662 0.240521 0
M  V30 60 H -6.504983 -2.099100 -1.371154 0
M  V30 61 H -5.687775 -4.622531 -1.178201 0
M  V30 62 H 4.203576 1.496935 0.459015 0
M  V30 63 H 3.489341 2.430825 -0.892460 0
M  V30 64 H 1.750935 4.393365 0.554534 0
M  V30 65 H 0.335029 3.451457 0.976529 0
M  V30 66 H 1.027588 3.316869 -0.687001 0
M  V30 67 H 3.908508 4.561391 0.380014 0
M  V30 68 H 4.414175 3.602724 1.826864 0
M  V30 END ATOM
M  V30 BEGIN BOND
M  V30 1 1 14 1
M  V30 2 1 1 34
M  V30 3 1 24 2
M  V30 4 1 2 35
M  V30 5 1 3 28
M  V30 6 1 3 36
M  V30 7 2 4 28
M  V30 8 1 6 5
M  V30 9 1 5 7
M  V30 10 1 15 5
M  V30 11 1 5 29
M  V30 12 1 6 10
M  V30 13 1 12 6
M  V30 14 1 6 19
M  V30 15 1 8 7
M  V30 16 1 7 14
M  V30 17 1 7 30
M  V30 18 1 9 8
M  V30 19 1 8 13
M  V30 20 1 8 31
M  V30 21 1 9 11
M  V30 22 1 18 9
M  V30 23 1 9 22
M  V30 24 1 10 16
M  V30 25 1 10 20
M  V30 26 1 10 32
M  V30 27 1 17 11
M  V30 28 1 11 21
M  V30 29 1 11 33
M  V30 30 1 13 12
M  V30 31 1 12 37
M  V30 32 1 12 38
M  V30 33 1 13 39
M  V30 34 1 13 40
M  V30 35 1 14 17
M  V30 36 1 14 41
M  V30 37 1 16 15
M  V30 38 1 15 42
M  V30 39 1 15 43
M  V30 40 1 16 44
M  V30 41 1 16 45
M  V30 42 1 17 46
M  V30 43 1 17 47
M  V30 44 1 23 18
M  V30 45 1 18 48
M  V30 46 1 18 49
M  V30 47 1 19 50
M  V30 48 1 19 51
M  V30 49 1 19 52
M  V30 50 1 20 25
M  V30 51 1 20 26
M  V30 52 1 20 53
M  V30 53 1 24 21
M  V30 54 1 21 54
M  V30 55 1 21 55
M  V30 56 1 22 56
M  V30 57 1 22 57
M  V30 58 1 22 58
M  V30 59 1 24 23
M  V30 60 1 23 59
M  V30 61 1 23 60
M  V30 62 1 24 61
M  V30 63 1 25 27
M  V30 64 1 25 62
M  V30 65 1 25 63
M  V30 66 1 26 64
M  V30 67 1 26 65
M  V30 68 1 26 66
M  V30 69 1 27 28
M  V30 70 1 27 67
M  V30 71 1 27 68
M  V30 END BOND
M  V30 END CTAB
M  END
