
  Chem3D Core 15.010141511183D

 36 38  0  0  0  0  0  0  0  0999 V2000
    3.7864   -3.4996    1.7052 O   0  0  0  0  0  0  0  0  0  0  0  0
    3.5366   -3.1164    0.3123 S   0  0  0  0  0  0  0  0  0  0  0  0
    2.4404   -1.7315    0.0463 C   0  0  0  0  0  0  0  0  0  0  0  0
    2.7249   -0.5249    0.5588 C   0  0  0  0  0  0  0  0  0  0  0  0
    1.9058    0.5166    0.3423 C   0  0  0  0  0  0  0  0  0  0  0  0
    0.7680    0.3978   -0.3698 C   0  0  0  0  0  0  0  0  0  0  0  0
   -0.0482    1.4446   -0.6155 C   0  0  0  0  0  0  0  0  0  0  0  0
    0.3771    2.7081   -0.8353 C   0  0  0  0  0  0  0  0  0  0  0  0
    1.7823    3.2339   -0.9673 C   0  0  0  0  0  0  0  0  0  0  0  0
   -0.5571    3.4379   -1.1490 O   0  0  0  0  0  0  0  0  0  0  0  0
   -1.6308    2.6779   -1.1767 N   0  0  0  0  0  0  0  0  0  0  0  0
   -1.3909    1.4933   -0.7928 C   0  0  0  0  0  0  0  0  0  0  0  0
   -2.4006    0.6116   -0.6071 C   0  0  0  0  0  0  0  0  0  0  0  0
   -2.2724   -0.5482    0.0692 C   0  0  0  0  0  0  0  0  0  0  0  0
   -3.2954   -1.3992    0.2483 C   0  0  0  0  0  0  0  0  0  0  0  0
   -4.5093   -1.1045   -0.2348 C   0  0  0  0  0  0  0  0  0  0  0  0
   -4.6818    0.0589   -0.8758 C   0  0  0  0  0  0  0  0  0  0  0  0
   -3.6473    0.8984   -1.0432 C   0  0  0  0  0  0  0  0  0  0  0  0
    0.5161   -0.8187   -0.8936 C   0  0  0  0  0  0  0  0  0  0  0  0
    1.3276   -1.8684   -0.6899 C   0  0  0  0  0  0  0  0  0  0  0  0
    5.1934   -2.7590    0.1642 N   0  0  0  0  0  0  0  0  0  0  0  0
    3.6905   -4.0678   -0.7926 O   0  0  0  0  0  0  0  0  0  0  0  0
    3.6265   -0.3814    1.1784 H   0  0  0  0  0  0  0  0  0  0  0  0
    2.1782    1.4689    0.8242 H   0  0  0  0  0  0  0  0  0  0  0  0
    1.8126    4.0678   -1.7052 H   0  0  0  0  0  0  0  0  0  0  0  0
    2.1423    3.6426    0.0036 H   0  0  0  0  0  0  0  0  0  0  0  0
    2.4933    2.4677   -1.3474 H   0  0  0  0  0  0  0  0  0  0  0  0
   -1.3333   -0.8268    0.5683 H   0  0  0  0  0  0  0  0  0  0  0  0
   -3.1481   -2.3318    0.8194 H   0  0  0  0  0  0  0  0  0  0  0  0
   -5.3565   -1.7937   -0.0840 H   0  0  0  0  0  0  0  0  0  0  0  0
   -5.6804    0.3248   -1.2626 H   0  0  0  0  0  0  0  0  0  0  0  0
   -3.8730    1.8333   -1.5838 H   0  0  0  0  0  0  0  0  0  0  0  0
   -0.3457   -0.9786   -1.5639 H   0  0  0  0  0  0  0  0  0  0  0  0
    1.0821   -2.8378   -1.1557 H   0  0  0  0  0  0  0  0  0  0  0  0
    5.6185   -3.3489   -0.5499 H   0  0  0  0  0  0  0  0  0  0  0  0
    5.6804   -2.9804    1.0316 H   0  0  0  0  0  0  0  0  0  0  0  0
  1  2  2  0      
  2  3  1  0      
  2 21  1  0      
  2 22  2  0      
  3  4  1  0      
  3 20  2  0      
  4  5  2  0      
  4 23  1  0      
  5  6  1  0      
  5 24  1  0      
  6  7  1  0      
  6 19  2  0      
  8  7  2  0      
 12  7  1  0      
  8  9  1  0      
  8 10  1  0      
  9 25  1  0      
  9 26  1  0      
  9 27  1  0      
 10 11  1  0      
 11 12  2  0      
 12 13  1  0      
 13 14  1  0      
 13 18  2  0      
 14 15  2  0      
 14 28  1  0      
 15 16  1  0      
 15 29  1  0      
 16 17  2  0      
 16 30  1  0      
 17 18  1  0      
 17 31  1  0      
 18 32  1  0      
 19 20  1  0      
 19 33  1  0      
 20 34  1  0      
 21 35  1  0      
 21 36  1  0      
M  END
