
  Chem3D Core 14.010291510433D

  0  0  0     0  0              0 V3000
M  V30 BEGIN CTAB
M  V30 COUNTS 26 25 0 0 0
M  V30 BEGIN ATOM
M  V30 1 C -2.998710 0.324605 2.101804 0
M  V30 2 C -1.683552 -0.419080 1.830065 0
M  V30 3 C -0.482412 0.539947 1.798012 0
M  V30 4 C 0.883735 -0.164425 1.666447 0
M  V30 5 C 2.030047 0.835617 1.765162 0
M  V30 6 C 0.891017 -0.265122 -0.921486 0
M  V30 7 C 1.137753 -1.172228 -2.135029 0
M  V30 8 C 1.034196 -1.033965 0.401678 0
M  V30 9 O 3.170731 0.246673 2.178287 0
M  V30 10 O 1.988098 2.019200 1.529982 0
M  V30 11 H -3.861777 -0.380370 2.113286 0
M  V30 12 H -2.973227 0.842357 3.087828 0
M  V30 13 H -3.196530 1.089700 1.316521 0
M  V30 14 H -1.775058 -0.952461 0.854682 0
M  V30 15 H -1.527718 -1.189686 2.622322 0
M  V30 16 H -0.482381 1.129902 2.746768 0
M  V30 17 H -0.621880 1.273918 0.971055 0
M  V30 18 H 0.979631 -0.836148 2.557661 0
M  V30 19 H 1.615723 0.582697 -0.948815 0
M  V30 20 H -0.133826 0.167086 -1.004376 0
M  V30 21 H 1.024459 -0.605370 -3.087828 0
M  V30 22 H 0.414358 -2.019200 -2.156866 0
M  V30 23 H 2.166632 -1.598939 -2.116582 0
M  V30 24 H 2.036603 -1.525095 0.420664 0
M  V30 25 H 0.294096 -1.867268 0.425186 0
M  V30 26 H 3.861777 0.927256 2.229933 0
M  V30 END ATOM
M  V30 BEGIN BOND
M  V30 1 1 2 1
M  V30 2 1 1 11
M  V30 3 1 1 12
M  V30 4 1 1 13
M  V30 5 1 2 3
M  V30 6 1 2 14
M  V30 7 1 2 15
M  V30 8 1 3 4
M  V30 9 1 3 16
M  V30 10 1 3 17
M  V30 11 1 4 5
M  V30 12 1 4 8
M  V30 13 1 4 18
M  V30 14 1 5 9
M  V30 15 2 5 10
M  V30 16 1 6 7
M  V30 17 1 6 8
M  V30 18 1 6 19
M  V30 19 1 6 20
M  V30 20 1 7 21
M  V30 21 1 7 22
M  V30 22 1 7 23
M  V30 23 1 8 24
M  V30 24 1 8 25
M  V30 25 1 9 26
M  V30 END BOND
M  V30 END CTAB
M  END
