
  Chem3D Core 14.010291510523D

  0  0  0     0  0              0 V3000
M  V30 BEGIN CTAB
M  V30 COUNTS 61 63 0 0 0
M  V30 BEGIN ATOM
M  V30 1 O -0.627226 0.271347 -0.682970 0
M  V30 2 O 1.705495 2.124327 2.509794 0
M  V30 3 O 0.388178 0.100042 -2.694115 0
M  V30 4 N 1.627424 1.508522 0.325192 0
M  V30 5 N 1.656208 -5.347130 0.689035 0
M  V30 6 N 0.806926 -7.123044 0.133031 0
M  V30 7 N 2.718918 -6.133516 0.404840 0
M  V30 8 N 2.050438 -7.260745 0.069812 0
M  V30 9 C 1.210990 1.735784 -1.071277 0
M  V30 10 C 2.382170 2.124162 -2.010224 0
M  V30 11 C 2.433121 0.297548 0.526868 0
M  V30 12 C 1.311023 2.339031 1.388558 0
M  V30 13 C 1.893657 2.827073 -3.293979 0
M  V30 14 C 3.398590 3.053282 -1.317784 0
M  V30 15 C 0.423642 3.547412 1.092246 0
M  V30 16 C 0.314124 0.606034 -1.595321 0
M  V30 17 C 1.541917 -0.912508 0.704002 0
M  V30 18 C 0.122089 4.425298 2.320658 0
M  V30 19 C -0.773562 5.623179 1.963517 0
M  V30 20 C 0.687370 -1.010339 1.734793 0
M  V30 21 C 1.545575 -1.918084 -0.185828 0
M  V30 22 C -0.119981 -3.098806 0.996892 0
M  V30 23 C -0.131097 -2.065838 1.864725 0
M  V30 24 C 0.729141 -2.973281 -0.043606 0
M  V30 25 C -1.073635 6.496583 3.189064 0
M  V30 26 C -0.966946 -4.154973 1.093969 0
M  V30 27 C -0.690099 -5.432544 0.716276 0
M  V30 28 C -2.221392 -3.880843 1.519179 0
M  V30 29 C -1.712472 -6.313888 0.638371 0
M  V30 30 C -3.210874 -4.783799 1.491603 0
M  V30 31 C 0.549636 -5.934783 0.501419 0
M  V30 32 C -2.960641 -6.006915 1.015595 0
M  V30 33 H -0.352439 0.484074 0.223329 0
M  V30 34 H 3.314791 -6.271165 1.218165 0
M  V30 35 H 0.512787 2.600859 -1.132483 0
M  V30 36 H 2.923321 1.193969 -2.314922 0
M  V30 37 H 3.127597 0.145506 -0.327773 0
M  V30 38 H 3.110307 0.385784 1.405513 0
M  V30 39 H 2.744255 3.047584 -3.978698 0
M  V30 40 H 1.169702 2.213860 -3.872796 0
M  V30 41 H 1.395225 3.794921 -3.059104 0
M  V30 42 H 4.232172 3.321532 -2.006173 0
M  V30 43 H 3.866720 2.579690 -0.426513 0
M  V30 44 H 2.918467 4.001476 -0.987374 0
M  V30 45 H 0.928173 4.193731 0.336303 0
M  V30 46 H -0.552765 3.179797 0.695467 0
M  V30 47 H -0.386415 3.812810 3.103439 0
M  V30 48 H 1.078985 4.803897 2.753649 0
M  V30 49 H -0.273382 6.245650 1.183402 0
M  V30 50 H -1.734868 5.256390 1.530443 0
M  V30 51 H 0.645180 -0.210616 2.490679 0
M  V30 52 H 2.199830 -1.864184 -1.072144 0
M  V30 53 H -0.785242 -2.065402 2.752837 0
M  V30 54 H 0.735904 -3.710331 -0.865143 0
M  V30 55 H -1.722824 7.360027 2.915297 0
M  V30 56 H -1.600657 5.913699 3.978698 0
M  V30 57 H -0.135976 6.904614 3.631019 0
M  V30 58 H -2.536353 -2.869081 1.825367 0
M  V30 59 H -1.569457 -7.360027 0.318428 0
M  V30 60 H -4.232172 -4.513011 1.808703 0
M  V30 61 H -3.767468 -6.757333 0.964272 0
M  V30 END ATOM
M  V30 BEGIN BOND
M  V30 1 1 1 16
M  V30 2 1 1 33
M  V30 3 2 2 12
M  V30 4 2 3 16
M  V30 5 1 9 4
M  V30 6 1 4 11
M  V30 7 1 4 12
M  V30 8 1 7 5
M  V30 9 2 5 31
M  V30 10 2 6 8
M  V30 11 1 31 6
M  V30 12 1 7 8
M  V30 13 1 7 34
M  V30 14 1 9 10
M  V30 15 1 9 16
M  V30 16 1 9 35
M  V30 17 1 10 13
M  V30 18 1 10 14
M  V30 19 1 10 36
M  V30 20 1 11 17
M  V30 21 1 11 37
M  V30 22 1 11 38
M  V30 23 1 12 15
M  V30 24 1 13 39
M  V30 25 1 13 40
M  V30 26 1 13 41
M  V30 27 1 14 42
M  V30 28 1 14 43
M  V30 29 1 14 44
M  V30 30 1 15 18
M  V30 31 1 15 45
M  V30 32 1 15 46
M  V30 33 1 17 20
M  V30 34 2 17 21
M  V30 35 1 18 19
M  V30 36 1 18 47
M  V30 37 1 18 48
M  V30 38 1 19 25
M  V30 39 1 19 49
M  V30 40 1 19 50
M  V30 41 2 20 23
M  V30 42 1 20 51
M  V30 43 1 24 21
M  V30 44 1 21 52
M  V30 45 1 23 22
M  V30 46 2 22 24
M  V30 47 1 22 26
M  V30 48 1 23 53
M  V30 49 1 24 54
M  V30 50 1 25 55
M  V30 51 1 25 56
M  V30 52 1 25 57
M  V30 53 1 26 27
M  V30 54 2 26 28
M  V30 55 2 27 29
M  V30 56 1 27 31
M  V30 57 1 30 28
M  V30 58 1 28 58
M  V30 59 1 29 32
M  V30 60 1 29 59
M  V30 61 2 32 30
M  V30 62 1 30 60
M  V30 63 1 32 61
M  V30 END BOND
M  V30 END CTAB
M  END
