
  Chem3D Core 14.010291510583D

  0  0  0     0  0              0 V3000
M  V30 BEGIN CTAB
M  V30 COUNTS 54 57 0 0 0
M  V30 BEGIN ATOM
M  V30 1 C -2.415511 0.965853 0.129131 0
M  V30 2 C -3.717245 1.277095 0.347042 0
M  V30 3 C -1.506745 1.963133 0.141337 0
M  V30 4 N -4.779388 0.569253 0.298208 0
M  V30 5 C -1.910985 -0.271536 -0.026342 0
M  V30 6 N -3.979497 2.485250 0.652087 0
M  V30 7 C -0.210299 1.711960 -0.099229 0
M  V30 8 C 0.259951 0.467023 -0.283090 0
M  V30 9 C -5.254003 -0.539522 -0.113143 0
M  V30 10 C -0.618362 -0.559724 -0.282685 0
M  V30 11 C -6.517019 -0.790931 0.296436 0
M  V30 12 N -1.847332 3.159960 0.370718 0
M  V30 13 N 6.183865 -2.029142 0.148264 0
M  V30 14 C -7.154033 -1.917871 -0.062526 0
M  V30 15 C -3.063997 3.353938 0.639440 0
M  V30 16 O 1.587087 0.260009 -0.566455 0
M  V30 17 C -4.697485 -1.421301 -0.963498 0
M  V30 18 C -6.558058 -2.809098 -0.867947 0
M  V30 19 C 6.171321 -0.789582 0.912736 0
M  V30 20 C 5.342941 -1.924872 -1.036247 0
M  V30 21 F -7.144654 0.050487 1.109138 0
M  V30 22 C 2.387466 0.052792 0.569240 0
M  V30 23 C -5.326690 -2.549454 -1.329942 0
M  V30 24 O -0.116158 -1.830755 -0.455465 0
M  V30 25 Br -7.459681 -4.390970 -1.384300 0
M  V30 26 C 3.817547 -0.275970 0.132845 0
M  V30 27 C 3.889328 -1.581396 -0.675198 0
M  V30 28 C 4.748597 -0.406640 1.348329 0
M  V30 29 C 7.543893 -2.402544 -0.212190 0
M  V30 30 C -0.955943 -2.943688 -0.253226 0
M  V30 31 H -5.572784 1.109422 0.738435 0
M  V30 32 H -2.583203 -1.117969 0.131499 0
M  V30 33 H 0.511064 2.547722 -0.126501 0
M  V30 34 H -8.173903 -2.098493 0.316502 0
M  V30 35 H -3.359900 4.390970 0.872980 0
M  V30 36 H -3.738932 -1.224603 -1.462978 0
M  V30 37 H 6.800026 -0.900246 1.829345 0
M  V30 38 H 6.608744 0.045600 0.315082 0
M  V30 39 H 5.345593 -2.893748 -1.592119 0
M  V30 40 H 5.740009 -1.147721 -1.732345 0
M  V30 41 H 2.375747 0.979779 1.188364 0
M  V30 42 H 1.968982 -0.785142 1.172186 0
M  V30 43 H -4.834331 -3.237152 -2.038564 0
M  V30 44 H 4.191248 0.561837 -0.507908 0
M  V30 45 H 3.451965 -2.415368 -0.076355 0
M  V30 46 H 3.284239 -1.494461 -1.608577 0
M  V30 47 H 4.353434 -1.189568 2.038564 0
M  V30 48 H 4.772364 0.553470 1.916886 0
M  V30 49 H 7.558382 -3.377467 -0.751437 0
M  V30 50 H 8.173903 -2.534236 0.697330 0
M  V30 51 H 8.027028 -1.637735 -0.862536 0
M  V30 52 H -0.344632 -3.860866 -0.409148 0
M  V30 53 H -1.338365 -2.957251 0.791793 0
M  V30 54 H -1.780138 -2.950723 -1.000802 0
M  V30 END ATOM
M  V30 BEGIN BOND
M  V30 1 2 2 1
M  V30 2 1 3 1
M  V30 3 1 1 5
M  V30 4 1 2 4
M  V30 5 1 6 2
M  V30 6 1 7 3
M  V30 7 2 3 12
M  V30 8 1 4 9
M  V30 9 1 4 31
M  V30 10 2 5 10
M  V30 11 1 5 32
M  V30 12 2 15 6
M  V30 13 2 8 7
M  V30 14 1 7 33
M  V30 15 1 8 10
M  V30 16 1 8 16
M  V30 17 1 9 11
M  V30 18 2 9 17
M  V30 19 1 10 24
M  V30 20 2 11 14
M  V30 21 1 11 21
M  V30 22 1 12 15
M  V30 23 1 13 19
M  V30 24 1 13 20
M  V30 25 1 13 29
M  V30 26 1 14 18
M  V30 27 1 14 34
M  V30 28 1 15 35
M  V30 29 1 16 22
M  V30 30 1 23 17
M  V30 31 1 17 36
M  V30 32 2 18 23
M  V30 33 1 18 25
M  V30 34 1 19 28
M  V30 35 1 19 37
M  V30 36 1 19 38
M  V30 37 1 27 20
M  V30 38 1 20 39
M  V30 39 1 20 40
M  V30 40 1 22 26
M  V30 41 1 22 41
M  V30 42 1 22 42
M  V30 43 1 23 43
M  V30 44 1 24 30
M  V30 45 1 26 27
M  V30 46 1 28 26
M  V30 47 1 26 44
M  V30 48 1 27 45
M  V30 49 1 27 46
M  V30 50 1 28 47
M  V30 51 1 28 48
M  V30 52 1 29 49
M  V30 53 1 29 50
M  V30 54 1 29 51
M  V30 55 1 30 52
M  V30 56 1 30 53
M  V30 57 1 30 54
M  V30 END BOND
M  V30 END CTAB
M  END
