
  Chem3D Core 15.004011617313D

  0  0  0     0  0              0 V3000
M  V30 BEGIN CTAB
M  V30 COUNTS 66 69 0 0 0
M  V30 BEGIN ATOM
M  V30 1 C 0.163060 0.438900 2.996721 0
M  V30 2 C 2.193350 0.711695 4.297962 0
M  V30 3 N 1.071813 1.170545 3.684895 0
M  V30 4 N 0.410177 -0.811579 2.950762 0
M  V30 5 O 2.952957 1.451985 4.867148 0
M  V30 6 C -0.948303 0.932404 2.382381 0
M  V30 7 C -2.512950 2.549931 1.804049 0
M  V30 8 C -3.230221 1.682783 1.079809 0
M  V30 9 C -2.794922 0.424341 0.965427 0
M  V30 10 C -1.686445 0.076181 1.635547 0
M  V30 11 C -1.367308 2.227650 2.443494 0
M  V30 12 C -1.257633 4.408395 3.487024 0
M  V30 13 C -0.315715 5.145062 4.436834 0
M  V30 14 O -0.691685 3.159635 3.191209 0
M  V30 15 C -3.322005 -1.448769 -3.628207 0
M  V30 16 C -1.705918 0.147427 -2.960941 0
M  V30 17 C -2.773903 0.889222 -2.144551 0
M  V30 18 C -4.382605 -0.750761 -2.755039 0
M  V30 19 N -3.846256 0.037139 -1.650774 0
M  V30 20 N -2.310566 -0.515806 -4.104086 0
M  V30 21 S -3.604483 -0.731054 -0.136787 0
M  V30 22 O -2.772716 -1.819969 -0.650932 0
M  V30 23 O -5.029820 -0.963366 0.122956 0
M  V30 24 C -1.329180 -1.189012 -4.949119 0
M  V30 25 C -0.307975 -0.235503 -5.592201 0
M  V30 26 C 2.270106 -0.627949 4.153496 0
M  V30 27 C 1.751716 -2.508362 3.588738 0
M  V30 28 C 3.183688 -1.494067 4.608907 0
M  V30 29 N 1.396426 -1.288170 3.517144 0
M  V30 30 N 2.829614 -2.653167 4.242941 0
M  V30 31 C 4.418723 -1.247907 5.418511 0
M  V30 32 C 1.048130 -3.725579 3.046237 0
M  V30 33 C -0.258733 -3.981918 3.814922 0
M  V30 34 C -0.984255 -5.238230 3.316394 0
M  V30 35 H 0.927042 2.157364 3.728032 0
M  V30 36 H -2.923108 3.571041 1.844903 0
M  V30 37 H -4.156557 2.010550 0.578525 0
M  V30 38 H -1.391533 -0.976253 1.494517 0
M  V30 39 H -1.366162 5.003893 2.550606 0
M  V30 40 H -2.243547 4.262796 3.987600 0
M  V30 41 H -0.723298 6.146454 4.706718 0
M  V30 42 H -0.167936 4.571790 5.381066 0
M  V30 43 H 0.684984 5.298365 3.970908 0
M  V30 44 H -3.845689 -1.911357 -4.500161 0
M  V30 45 H -2.850622 -2.292846 -3.075662 0
M  V30 46 H -0.964935 0.909995 -3.298210 0
M  V30 47 H -1.155160 -0.576703 -2.316862 0
M  V30 48 H -2.273849 1.457861 -1.328418 0
M  V30 49 H -3.222665 1.679056 -2.796703 0
M  V30 50 H -4.969531 -0.067180 -3.417430 0
M  V30 51 H -5.121672 -1.506914 -2.399028 0
M  V30 52 H -1.862296 -1.704392 -5.785656 0
M  V30 53 H -0.783316 -1.976993 -4.377106 0
M  V30 54 H 0.279013 -0.757496 -6.383099 0
M  V30 55 H 0.432818 0.152734 -4.857744 0
M  V30 56 H -0.817061 0.633168 -6.069940 0
M  V30 57 H 5.121672 -0.590886 4.858044 0
M  V30 58 H 4.159324 -0.755914 6.383099 0
M  V30 59 H 4.951154 -2.197491 5.651769 0
M  V30 60 H 0.835068 -3.565622 1.963380 0
M  V30 61 H 1.708724 -4.620936 3.125512 0
M  V30 62 H -0.033817 -4.095508 4.903023 0
M  V30 63 H -0.941588 -3.105086 3.708329 0
M  V30 64 H -1.933912 -5.398636 3.877350 0
M  V30 65 H -1.238722 -5.151789 2.235417 0
M  V30 66 H -0.353736 -6.146454 3.452159 0
M  V30 END ATOM
M  V30 BEGIN BOND
M  V30 1 1 1 3
M  V30 2 2 1 4
M  V30 3 1 1 6
M  V30 4 1 2 3
M  V30 5 2 2 5
M  V30 6 1 2 26
M  V30 7 1 3 35
M  V30 8 1 4 29
M  V30 9 1 6 10
M  V30 10 2 6 11
M  V30 11 2 8 7
M  V30 12 1 7 11
M  V30 13 1 7 36
M  V30 14 1 9 8
M  V30 15 1 8 37
M  V30 16 2 10 9
M  V30 17 1 9 21
M  V30 18 1 10 38
M  V30 19 1 11 14
M  V30 20 1 12 13
M  V30 21 1 12 14
M  V30 22 1 12 39
M  V30 23 1 12 40
M  V30 24 1 13 41
M  V30 25 1 13 42
M  V30 26 1 13 43
M  V30 27 1 15 18
M  V30 28 1 20 15
M  V30 29 1 15 44
M  V30 30 1 15 45
M  V30 31 1 17 16
M  V30 32 1 20 16
M  V30 33 1 16 46
M  V30 34 1 16 47
M  V30 35 1 19 17
M  V30 36 1 17 48
M  V30 37 1 17 49
M  V30 38 1 18 19
M  V30 39 1 18 50
M  V30 40 1 18 51
M  V30 41 1 19 21
M  V30 42 1 20 24
M  V30 43 2 21 22
M  V30 44 2 21 23
M  V30 45 1 24 25
M  V30 46 1 24 52
M  V30 47 1 24 53
M  V30 48 1 25 54
M  V30 49 1 25 55
M  V30 50 1 25 56
M  V30 51 2 26 28
M  V30 52 1 26 29
M  V30 53 1 27 29
M  V30 54 2 27 30
M  V30 55 1 27 32
M  V30 56 1 28 30
M  V30 57 1 28 31
M  V30 58 1 31 57
M  V30 59 1 31 58
M  V30 60 1 31 59
M  V30 61 1 32 33
M  V30 62 1 32 60
M  V30 63 1 32 61
M  V30 64 1 33 34
M  V30 65 1 33 62
M  V30 66 1 33 63
M  V30 67 1 34 64
M  V30 68 1 34 65
M  V30 69 1 34 66
M  V30 END BOND
M  V30 END CTAB
M  END
