
  Chem3D Core 15.008141513573D

 51 54  0  0  0  0  0  0  0  0999 V2000
   -4.3930    8.8210    0.0336 Cl  0  0  0  0  0  0  0  0  0  0  0  0
    3.1594   -4.2563    0.2760 S   0  0  0  0  0  0  0  0  0  0  0  0
    1.3907   -0.8717    0.9053 F   0  0  0  0  0  0  0  0  0  0  0  0
   -1.2785   -1.0907   -2.9315 F   0  0  0  0  0  0  0  0  0  0  0  0
   -1.0321    1.0043   -1.5489 O   0  0  0  0  0  0  0  0  0  0  0  0
    4.3454   -3.9244    1.0496 O   0  0  0  0  0  0  0  0  0  0  0  0
    3.2115   -4.6952   -1.1082 O   0  0  0  0  0  0  0  0  0  0  0  0
    2.7835    2.1808    0.0671 N   0  0  0  0  0  0  0  0  0  0  0  0
    2.1747    4.3537    0.4647 N   0  0  0  0  0  0  0  0  0  0  0  0
    1.7782   -3.3751    0.7310 N   0  0  0  0  0  0  0  0  0  0  0  0
    0.9155    1.3896   -0.5680 C   0  0  0  0  0  0  0  0  0  0  0  0
    0.7817    2.7045   -0.2832 C   0  0  0  0  0  0  0  0  0  0  0  0
    0.1257   -0.8418   -1.0549 C   0  0  0  0  0  0  0  0  0  0  0  0
   -0.0262    0.5270   -1.0589 C   0  0  0  0  0  0  0  0  0  0  0  0
    1.9790    3.1570    0.1221 C   0  0  0  0  0  0  0  0  0  0  0  0
    0.8908   -1.4981   -0.1507 C   0  0  0  0  0  0  0  0  0  0  0  0
   -0.5150   -1.6036   -1.9756 C   0  0  0  0  0  0  0  0  0  0  0  0
    1.0590   -2.8364   -0.1743 C   0  0  0  0  0  0  0  0  0  0  0  0
    2.2141    1.1242   -0.3365 C   0  0  0  0  0  0  0  0  0  0  0  0
   -0.2454    3.5698   -0.3037 C   0  0  0  0  0  0  0  0  0  0  0  0
   -0.0781    4.8647    0.0544 C   0  0  0  0  0  0  0  0  0  0  0  0
   -0.3467   -2.9348   -2.0092 C   0  0  0  0  0  0  0  0  0  0  0  0
    0.4378   -3.5562   -1.1207 C   0  0  0  0  0  0  0  0  0  0  0  0
    1.1917    5.1510    0.4262 C   0  0  0  0  0  0  0  0  0  0  0  0
   -1.0833    5.7846    0.0488 C   0  0  0  0  0  0  0  0  0  0  0  0
   -0.9076    7.0683    0.4392 C   0  0  0  0  0  0  0  0  0  0  0  0
   -2.3447    5.4977   -0.3489 C   0  0  0  0  0  0  0  0  0  0  0  0
    2.4658   -5.7169    1.1729 C   0  0  0  0  0  0  0  0  0  0  0  0
   -1.8882    7.9865    0.4400 C   0  0  0  0  0  0  0  0  0  0  0  0
   -3.3439    6.3956   -0.3586 C   0  0  0  0  0  0  0  0  0  0  0  0
   -3.1213    7.6543    0.0388 C   0  0  0  0  0  0  0  0  0  0  0  0
    3.4013   -6.9348    1.1051 C   0  0  0  0  0  0  0  0  0  0  0  0
    2.8136   -8.1380    1.8553 C   0  0  0  0  0  0  0  0  0  0  0  0
    3.7986    2.2507    0.3097 H   0  0  0  0  0  0  0  0  0  0  0  0
    2.0526   -2.6187    1.4126 H   0  0  0  0  0  0  0  0  0  0  0  0
    2.8201    0.2240   -0.4849 H   0  0  0  0  0  0  0  0  0  0  0  0
   -1.2234    3.1794   -0.5960 H   0  0  0  0  0  0  0  0  0  0  0  0
   -0.8614   -3.5313   -2.7817 H   0  0  0  0  0  0  0  0  0  0  0  0
    0.5277   -4.6540   -1.1659 H   0  0  0  0  0  0  0  0  0  0  0  0
    1.5155    6.1519    0.7478 H   0  0  0  0  0  0  0  0  0  0  0  0
    0.0568    7.4612    0.7922 H   0  0  0  0  0  0  0  0  0  0  0  0
   -2.6520    4.5026   -0.7018 H   0  0  0  0  0  0  0  0  0  0  0  0
    2.2993   -5.4370    2.2400 H   0  0  0  0  0  0  0  0  0  0  0  0
    1.4800   -5.9854    0.7257 H   0  0  0  0  0  0  0  0  0  0  0  0
   -1.6727    9.0162    0.7739 H   0  0  0  0  0  0  0  0  0  0  0  0
   -4.3494    6.0911   -0.6972 H   0  0  0  0  0  0  0  0  0  0  0  0
    3.5760   -7.2231    0.0407 H   0  0  0  0  0  0  0  0  0  0  0  0
    4.3930   -6.6806    1.5504 H   0  0  0  0  0  0  0  0  0  0  0  0
    3.4975   -9.0162    1.8015 H   0  0  0  0  0  0  0  0  0  0  0  0
    2.6517   -7.9003    2.9315 H   0  0  0  0  0  0  0  0  0  0  0  0
    1.8348   -8.4440    1.4200 H   0  0  0  0  0  0  0  0  0  0  0  0
  1 31  1  0      
  2  6  2  0      
  2  7  2  0      
  2 10  1  0      
  2 28  1  0      
  3 16  1  0      
  4 17  1  0      
  5 14  2  0      
  8 15  1  0      
  8 19  1  0      
  8 34  1  0      
  9 15  2  0      
 24  9  1  0      
 10 18  1  0      
 10 35  1  0      
 11 12  1  0      
 11 14  1  0      
 19 11  2  0      
 12 15  1  0      
 12 20  2  0      
 13 14  1  0      
 13 16  1  0      
 13 17  2  0      
 16 18  2  0      
 22 17  1  0      
 18 23  1  0      
 19 36  1  0      
 20 21  1  0      
 20 37  1  0      
 21 24  2  0      
 21 25  1  0      
 23 22  2  0      
 22 38  1  0      
 23 39  1  0      
 24 40  1  0      
 25 26  1  0      
 25 27  2  0      
 26 29  2  0      
 26 41  1  0      
 30 27  1  0      
 27 42  1  0      
 28 32  1  0      
 28 43  1  0      
 28 44  1  0      
 29 31  1  0      
 29 45  1  0      
 31 30  2  0      
 30 46  1  0      
 32 33  1  0      
 32 47  1  0      
 32 48  1  0      
 33 49  1  0      
 33 50  1  0      
 33 51  1  0      
M  END
