
  Chem3D Core 15.011261511243D

111118  0  0  0  0  0  0  0  0999 V2000
    1.8738   -1.2311   -4.7343 O   0  0  0  0  0  0  0  0  0  0  0  0
    2.2470   -0.0990   -4.5185 C   0  0  0  0  0  0  0  0  0  0  0  0
    2.6779    0.6613   -5.5809 N   0  0  0  0  0  0  0  0  0  0  0  0
    3.2366    0.1060   -7.0818 S   0  0  0  0  0  0  0  0  0  0  0  0
    3.9969   -1.1235   -7.2911 O   0  0  0  0  0  0  0  0  0  0  0  0
    1.9933    0.0542   -8.3935 C   0  0  0  0  0  0  0  0  0  0  0  0
    1.6902   -1.1925   -8.7997 C   0  0  0  0  0  0  0  0  0  0  0  0
    0.6004   -1.8419   -8.3711 C   0  0  0  0  0  0  0  0  0  0  0  0
   -0.1633   -1.2892   -7.4124 C   0  0  0  0  0  0  0  0  0  0  0  0
   -1.0636   -2.0688   -6.9576 N   0  0  0  0  0  0  0  0  0  0  0  0
   -2.0724   -1.7842   -5.9117 C   0  0  0  0  0  0  0  0  0  0  0  0
   -3.1389   -2.8941   -5.8877 C   0  0  0  0  0  0  0  0  0  0  0  0
   -2.5561   -4.2474   -5.4478 C   0  0  0  0  0  0  0  0  0  0  0  0
   -3.6613   -5.2941   -5.3423 C   0  0  0  0  0  0  0  0  0  0  0  0
   -4.6569   -4.8819   -4.4399 O   0  0  0  0  0  0  0  0  0  0  0  0
   -5.2887   -3.6970   -4.8556 C   0  0  0  0  0  0  0  0  0  0  0  0
   -4.2889   -2.5460   -4.9293 C   0  0  0  0  0  0  0  0  0  0  0  0
    0.1143   -0.0108   -7.0597 C   0  0  0  0  0  0  0  0  0  0  0  0
   -0.2952    0.4977   -5.9783 N   0  3  0  0  0  0  0  0  0  0  0  0
    0.3366    1.6024   -5.6099 O   0  5  0  0  0  0  0  0  0  0  0  0
    0.2296   -0.3316   -5.1089 O   0  0  0  0  0  0  0  0  0  0  0  0
    0.9843    0.7106   -7.7964 C   0  0  0  0  0  0  0  0  0  0  0  0
    3.8539    1.2642   -7.7584 O   0  0  0  0  0  0  0  0  0  0  0  0
    2.2470    0.4988   -3.2881 C   0  0  0  0  0  0  0  0  0  0  0  0
    2.8722    1.6761   -3.1096 C   0  0  0  0  0  0  0  0  0  0  0  0
    2.9073    2.2961   -1.9210 C   0  0  0  0  0  0  0  0  0  0  0  0
    2.3187    1.8026   -0.8136 C   0  0  0  0  0  0  0  0  0  0  0  0
    2.3540    2.3862    0.3290 N   0  0  0  0  0  0  0  0  0  0  0  0
    3.0641    3.6727    0.5809 C   0  0  0  0  0  0  0  0  0  0  0  0
    4.1812    3.3760    1.5954 C   0  0  0  0  0  0  0  0  0  0  0  0
    3.6490    2.7960    2.8229 N   0  0  0  0  0  0  0  0  0  0  0  0
    4.7122    2.5820    3.8027 C   0  0  0  0  0  0  0  0  0  0  0  0
    4.1671    2.1967    5.1776 C   0  0  0  0  0  0  0  0  0  0  0  0
    3.0487    2.6674    5.7883 C   0  0  0  0  0  0  0  0  0  0  0  0
    2.3797    3.8080    5.4540 C   0  0  0  0  0  0  0  0  0  0  0  0
    2.9074    4.8045    4.7108 C   0  0  0  0  0  0  0  0  0  0  0  0
    2.2494    5.9266    4.3783 C   0  0  0  0  0  0  0  0  0  0  0  0
    0.9994    6.1216    4.8148 C   0  0  0  0  0  0  0  0  0  0  0  0
    0.1370    7.5610    4.4129 Cl  0  0  0  0  0  0  0  0  0  0  0  0
    0.4497    5.1897    5.6030 C   0  0  0  0  0  0  0  0  0  0  0  0
    1.1366    4.0784    5.9155 C   0  0  0  0  0  0  0  0  0  0  0  0
    2.4792    1.8316    6.9408 C   0  0  0  0  0  0  0  0  0  0  0  0
    3.1537    0.4949    7.3057 C   0  0  0  0  0  0  0  0  0  0  0  0
    2.8049    0.1043    8.7591 C   0  0  0  0  0  0  0  0  0  0  0  0
    2.6581   -0.6402    6.3830 C   0  0  0  0  0  0  0  0  0  0  0  0
    4.6661    0.7032    7.1901 C   0  0  0  0  0  0  0  0  0  0  0  0
    5.0153    1.0763    5.7521 C   0  0  0  0  0  0  0  0  0  0  0  0
    2.8992    1.5739    2.5550 C   0  0  0  0  0  0  0  0  0  0  0  0
    1.7454    1.8260    1.5694 C   0  0  0  0  0  0  0  0  0  0  0  0
    1.6983    0.6255   -1.0423 C   0  0  0  0  0  0  0  0  0  0  0  0
    1.6371   -0.0500   -2.2110 C   0  0  0  0  0  0  0  0  0  0  0  0
    0.9205   -1.2264   -2.2260 O   0  0  0  0  0  0  0  0  0  0  0  0
    1.6208   -2.4033   -2.2428 C   0  0  0  0  0  0  0  0  0  0  0  0
    2.7806   -2.6015   -1.5804 C   0  0  0  0  0  0  0  0  0  0  0  0
    3.4607   -3.6712   -1.5638 N   0  0  0  0  0  0  0  0  0  0  0  0
    3.0232   -4.6538   -2.2260 C   0  0  0  0  0  0  0  0  0  0  0  0
    3.4713   -5.8291   -2.4005 N   0  0  0  0  0  0  0  0  0  0  0  0
    2.7169   -6.5230   -3.1498 C   0  0  0  0  0  0  0  0  0  0  0  0
    1.6720   -5.7668   -3.5131 C   0  0  0  0  0  0  0  0  0  0  0  0
    1.8772   -4.5834   -2.9203 C   0  0  0  0  0  0  0  0  0  0  0  0
    1.1534   -3.4604   -2.9353 C   0  0  0  0  0  0  0  0  0  0  0  0
    2.7829    1.6487   -5.4137 H   0  0  0  0  0  0  0  0  0  0  0  0
    2.3857   -1.6999   -9.4902 H   0  0  0  0  0  0  0  0  0  0  0  0
    0.4329   -2.8725   -8.7296 H   0  0  0  0  0  0  0  0  0  0  0  0
   -1.0811   -3.0256   -7.3907 H   0  0  0  0  0  0  0  0  0  0  0  0
   -1.6008   -1.7580   -4.9037 H   0  0  0  0  0  0  0  0  0  0  0  0
   -2.5660   -0.8063   -6.1196 H   0  0  0  0  0  0  0  0  0  0  0  0
   -3.5614   -2.9997   -6.9183 H   0  0  0  0  0  0  0  0  0  0  0  0
   -1.7801   -4.5959   -6.1687 H   0  0  0  0  0  0  0  0  0  0  0  0
   -2.0574   -4.1402   -4.4554 H   0  0  0  0  0  0  0  0  0  0  0  0
   -4.1222   -5.5011   -6.3350 H   0  0  0  0  0  0  0  0  0  0  0  0
   -3.2437   -6.2548   -4.9599 H   0  0  0  0  0  0  0  0  0  0  0  0
   -6.0849   -3.4653   -4.1101 H   0  0  0  0  0  0  0  0  0  0  0  0
   -5.7881   -3.8666   -5.8368 H   0  0  0  0  0  0  0  0  0  0  0  0
   -3.8816   -2.3437   -3.9102 H   0  0  0  0  0  0  0  0  0  0  0  0
   -4.8064   -1.6179   -5.2697 H   0  0  0  0  0  0  0  0  0  0  0  0
    1.2138    1.7645   -7.5504 H   0  0  0  0  0  0  0  0  0  0  0  0
    3.4121    2.1831   -3.9264 H   0  0  0  0  0  0  0  0  0  0  0  0
    3.4709    3.2388   -1.9338 H   0  0  0  0  0  0  0  0  0  0  0  0
    3.4845    4.2085   -0.2911 H   0  0  0  0  0  0  0  0  0  0  0  0
    2.3413    4.3950    1.0300 H   0  0  0  0  0  0  0  0  0  0  0  0
    4.9277    2.6909    1.1266 H   0  0  0  0  0  0  0  0  0  0  0  0
    4.7078    4.3343    1.8239 H   0  0  0  0  0  0  0  0  0  0  0  0
    5.4051    3.4454    3.9145 H   0  0  0  0  0  0  0  0  0  0  0  0
    5.3697    1.7708    3.4096 H   0  0  0  0  0  0  0  0  0  0  0  0
    3.9486    4.7878    4.3700 H   0  0  0  0  0  0  0  0  0  0  0  0
    2.7531    6.6962    3.7684 H   0  0  0  0  0  0  0  0  0  0  0  0
   -0.5694    5.3324    6.0022 H   0  0  0  0  0  0  0  0  0  0  0  0
    0.5810    3.3913    6.5704 H   0  0  0  0  0  0  0  0  0  0  0  0
    2.5077    2.4922    7.8412 H   0  0  0  0  0  0  0  0  0  0  0  0
    1.4194    1.5533    6.7381 H   0  0  0  0  0  0  0  0  0  0  0  0
    3.1727    0.8593    9.4902 H   0  0  0  0  0  0  0  0  0  0  0  0
    1.7042    0.0124    8.9006 H   0  0  0  0  0  0  0  0  0  0  0  0
    3.2636   -0.8722    9.0351 H   0  0  0  0  0  0  0  0  0  0  0  0
    1.5872   -0.8792    6.5724 H   0  0  0  0  0  0  0  0  0  0  0  0
    2.7323   -0.3780    5.3056 H   0  0  0  0  0  0  0  0  0  0  0  0
    3.2398   -1.5751    6.5479 H   0  0  0  0  0  0  0  0  0  0  0  0
    4.9825    1.5245    7.8766 H   0  0  0  0  0  0  0  0  0  0  0  0
    5.2199   -0.2148    7.4967 H   0  0  0  0  0  0  0  0  0  0  0  0
    6.0849    1.3981    5.7372 H   0  0  0  0  0  0  0  0  0  0  0  0
    4.9415    0.1791    5.0949 H   0  0  0  0  0  0  0  0  0  0  0  0
    2.4608    1.1716    3.4985 H   0  0  0  0  0  0  0  0  0  0  0  0
    3.5666    0.7817    2.1390 H   0  0  0  0  0  0  0  0  0  0  0  0
    1.0507    2.5857    2.0004 H   0  0  0  0  0  0  0  0  0  0  0  0
    1.1324    0.9095    1.4772 H   0  0  0  0  0  0  0  0  0  0  0  0
    1.1672    0.1041   -0.2353 H   0  0  0  0  0  0  0  0  0  0  0  0
    3.2134   -1.7834   -0.9799 H   0  0  0  0  0  0  0  0  0  0  0  0
    4.3611   -6.1782   -1.9752 H   0  0  0  0  0  0  0  0  0  0  0  0
    2.9524   -7.5610   -3.4074 H   0  0  0  0  0  0  0  0  0  0  0  0
    0.8325   -6.0572   -4.1563 H   0  0  0  0  0  0  0  0  0  0  0  0
    0.2110   -3.3998   -3.5020 H   0  0  0  0  0  0  0  0  0  0  0  0
  1  2  2  0      
  2  3  1  0      
  2 24  1  0      
  3  4  1  0      
  3 62  1  0      
  4  5  2  0      
  4  6  1  0      
  4 23  2  0      
  6  7  1  0      
  6 22  2  0      
  7  8  2  0      
  7 63  1  0      
  8  9  1  0      
  8 64  1  0      
  9 10  1  0      
  9 18  2  0      
 10 11  1  0      
 10 65  1  0      
 11 12  1  0      
 11 66  1  0      
 11 67  1  0      
 13 12  1  0      
 12 17  1  0      
 12 68  1  0      
 14 13  1  0      
 13 69  1  0      
 13 70  1  0      
 14 15  1  0      
 14 71  1  0      
 14 72  1  0      
 16 15  1  0      
 17 16  1  0      
 16 73  1  0      
 16 74  1  0      
 17 75  1  0      
 17 76  1  0      
 18 19  1  0      
 18 22  1  0      
 19 20  1  0      
 19 21  2  0      
 22 77  1  0      
 24 25  1  0      
 24 51  2  0      
 25 26  2  0      
 25 78  1  0      
 26 27  1  0      
 26 79  1  0      
 27 28  1  0      
 27 50  2  0      
 28 29  1  0      
 28 49  1  0      
 29 30  1  0      
 29 80  1  0      
 29 81  1  0      
 30 31  1  0      
 30 82  1  0      
 30 83  1  0      
 31 32  1  0      
 31 48  1  0      
 32 33  1  0      
 32 84  1  0      
 32 85  1  0      
 33 34  2  0      
 33 47  1  0      
 34 35  1  0      
 34 42  1  0      
 35 36  1  0      
 35 41  2  0      
 36 37  2  0      
 36 86  1  0      
 37 38  1  0      
 37 87  1  0      
 38 39  1  0      
 38 40  2  0      
 40 41  1  0      
 40 88  1  0      
 41 89  1  0      
 42 43  1  0      
 42 90  1  0      
 42 91  1  0      
 43 44  1  0      
 43 45  1  0      
 43 46  1  0      
 44 92  1  0      
 44 93  1  0      
 44 94  1  0      
 45 95  1  0      
 45 96  1  0      
 45 97  1  0      
 46 47  1  0      
 46 98  1  0      
 46 99  1  0      
 47100  1  0      
 47101  1  0      
 48 49  1  0      
 48102  1  0      
 48103  1  0      
 49104  1  0      
 49105  1  0      
 50 51  1  0      
 50106  1  0      
 51 52  1  0      
 52 53  1  0      
 53 54  2  0      
 61 53  1  0      
 54 55  1  0      
 54107  1  0      
 55 56  2  0      
 57 56  1  0      
 60 56  1  0      
 57 58  1  0      
 57108  1  0      
 58 59  2  0      
 58109  1  0      
 59 60  1  0      
 59110  1  0      
 60 61  2  0      
 61111  1  0      
M  CHG  2  19   1  20  -1
M  END
