
  Chem3D Core 14.010291511013D

  0  0  0     0  0              0 V3000
M  V30 BEGIN CTAB
M  V30 COUNTS 47 48 0 0 0
M  V30 BEGIN ATOM
M  V30 1 O -0.111524 -1.739828 2.934848 0
M  V30 2 O 2.825208 -1.872881 -2.869330 0
M  V30 3 N 2.475934 1.704825 2.781615 0
M  V30 4 C -0.639714 -0.584393 2.332502 0
M  V30 5 C 0.557380 0.283142 1.855123 0
M  V30 6 C -1.534183 0.095182 3.387227 0
M  V30 7 C -1.560942 -1.057211 1.193589 0
M  V30 8 C -2.392617 1.239132 2.826513 0
M  V30 9 C -2.407523 0.074236 0.591893 0
M  V30 10 C -3.268992 0.745457 1.668560 0
M  V30 11 C 1.627074 0.525665 2.954011 0
M  V30 12 C 1.167960 -0.286109 0.576822 0
M  V30 13 C 1.896343 -1.416023 0.572657 0
M  V30 14 C 0.993164 0.320004 -0.611514 0
M  V30 15 C 3.313412 1.897575 3.960535 0
M  V30 16 C 3.312951 1.647933 1.593881 0
M  V30 17 C 2.419659 -1.903093 -0.562203 0
M  V30 18 C 1.520173 -0.173717 -1.742987 0
M  V30 19 C 2.252449 -1.304679 -1.756738 0
M  V30 20 C 2.656662 -1.238668 -4.116024 0
M  V30 21 H -0.827859 -2.305491 3.230554 0
M  V30 22 H 0.144307 1.291978 1.615233 0
M  V30 23 H -2.228124 -0.669325 3.813603 0
M  V30 24 H -0.947063 0.466489 4.255638 0
M  V30 25 H -0.986281 -1.572925 0.391371 0
M  V30 26 H -2.260821 -1.831339 1.591247 0
M  V30 27 H -3.042246 1.655921 3.633537 0
M  V30 28 H -1.745046 2.077451 2.480992 0
M  V30 29 H -3.063352 -0.331027 -0.215663 0
M  V30 30 H -1.751823 0.838339 0.116838 0
M  V30 31 H -4.017239 0.012727 2.054637 0
M  V30 32 H -3.840680 1.597271 1.228867 0
M  V30 33 H 1.086920 0.658751 3.918583 0
M  V30 34 H 2.251659 -0.383780 3.103664 0
M  V30 35 H 2.078495 -1.969366 1.506886 0
M  V30 36 H 0.408549 1.252950 -0.671322 0
M  V30 37 H 3.911768 2.833829 3.878040 0
M  V30 38 H 2.695917 2.009668 4.881078 0
M  V30 39 H 4.017239 1.047064 4.112134 0
M  V30 40 H 4.015940 2.511065 1.554878 0
M  V30 41 H 2.705909 1.738986 0.668956 0
M  V30 42 H 3.914489 0.711320 1.552040 0
M  V30 43 H 3.011271 -2.833829 -0.515357 0
M  V30 44 H 1.329168 0.389751 -2.670007 0
M  V30 45 H 3.191418 -1.845213 -4.881078 0
M  V30 46 H 1.578801 -1.205700 -4.390980 0
M  V30 47 H 3.111505 -0.223138 -4.098226 0
M  V30 END ATOM
M  V30 BEGIN BOND
M  V30 1 1 1 4
M  V30 2 1 1 21
M  V30 3 1 2 19
M  V30 4 1 2 20
M  V30 5 1 3 11
M  V30 6 1 3 15
M  V30 7 1 3 16
M  V30 8 1 4 5
M  V30 9 1 4 6
M  V30 10 1 4 7
M  V30 11 1 5 11
M  V30 12 1 5 12
M  V30 13 1 5 22
M  V30 14 1 6 8
M  V30 15 1 6 23
M  V30 16 1 6 24
M  V30 17 1 9 7
M  V30 18 1 7 25
M  V30 19 1 7 26
M  V30 20 1 8 10
M  V30 21 1 8 27
M  V30 22 1 8 28
M  V30 23 1 10 9
M  V30 24 1 9 29
M  V30 25 1 9 30
M  V30 26 1 10 31
M  V30 27 1 10 32
M  V30 28 1 11 33
M  V30 29 1 11 34
M  V30 30 1 12 13
M  V30 31 2 12 14
M  V30 32 2 13 17
M  V30 33 1 13 35
M  V30 34 1 18 14
M  V30 35 1 14 36
M  V30 36 1 15 37
M  V30 37 1 15 38
M  V30 38 1 15 39
M  V30 39 1 16 40
M  V30 40 1 16 41
M  V30 41 1 16 42
M  V30 42 1 17 19
M  V30 43 1 17 43
M  V30 44 2 19 18
M  V30 45 1 18 44
M  V30 46 1 20 45
M  V30 47 1 20 46
M  V30 48 1 20 47
M  V30 END BOND
M  V30 END CTAB
M  END
