
  Chem3D Core 14.010291511083D

  0  0  0     0  0              0 V3000
M  V30 BEGIN CTAB
M  V30 COUNTS 95 100 0 0 0
M  V30 BEGIN ATOM
M  V30 1 O -2.874466 2.320672 -1.726521 0
M  V30 2 O -0.827527 2.545140 -0.822630 0
M  V30 3 O -2.166864 6.831024 0.948814 0
M  V30 4 O -3.629755 5.501835 -0.106918 0
M  V30 5 O -1.880261 -3.164068 -3.454410 0
M  V30 6 O -2.250687 -5.360679 -3.133108 0
M  V30 7 O -0.286336 -7.548879 -3.458855 0
M  V30 8 O 1.002923 -8.868236 -2.141905 0
M  V30 9 N -1.136311 0.121459 1.928497 0
M  V30 10 N -2.366251 -2.216405 0.709593 0
M  V30 11 N 1.010545 -1.558942 2.877671 0
M  V30 12 N -0.248825 -3.801205 1.760074 0
M  V30 13 C -2.282840 2.085894 1.778770 0
M  V30 14 C -2.632676 3.068116 0.646997 0
M  V30 15 C -0.833180 2.217596 2.131325 0
M  V30 16 C -2.235220 0.599515 1.513591 0
M  V30 17 C -3.162359 2.329211 3.023381 0
M  V30 18 C -2.081702 4.437453 1.062811 0
M  V30 19 C -0.287885 0.997921 2.277687 0
M  V30 20 C -0.303698 3.440394 2.273342 0
M  V30 21 C -0.973288 4.518354 1.830225 0
M  V30 22 C -2.031581 2.638210 -0.698671 0
M  V30 23 C -3.232672 -0.051891 0.896444 0
M  V30 24 C 0.979982 0.757171 2.656837 0
M  V30 25 C -3.251900 -1.332878 0.503761 0
M  V30 26 C -2.657343 5.593356 0.613646 0
M  V30 27 C -4.192659 -1.916287 -0.259463 0
M  V30 28 C 1.576936 -0.424716 2.882455 0
M  V30 29 C -3.771420 -3.169973 -0.509059 0
M  V30 30 C -2.601137 -3.325348 0.138433 0
M  V30 31 C 2.868241 -0.657000 3.195218 0
M  V30 32 C -4.482271 -4.181481 -1.371293 0
M  V30 33 C -5.435883 -1.254812 -0.787952 0
M  V30 34 C 1.783865 -2.523851 3.175351 0
M  V30 35 C 3.005280 -1.986825 3.383327 0
M  V30 36 C -1.816910 -4.413671 0.158236 0
M  V30 37 C -0.702002 -4.595881 0.884566 0
M  V30 38 C -4.260275 2.553451 -1.714271 0
M  V30 39 C 0.101749 -5.672238 0.826618 0
M  V30 40 C -4.153566 -3.957562 -2.857890 0
M  V30 41 C 1.538750 -3.849835 3.366719 0
M  V30 42 C 0.785962 -4.280411 2.317565 0
M  V30 43 C 3.950503 0.385942 3.306241 0
M  V30 44 C 1.058867 -5.464687 1.742467 0
M  V30 45 C -0.024006 -6.880676 -0.064944 0
M  V30 46 C -2.814185 7.969805 0.431898 0
M  V30 47 C 4.076293 -2.728687 3.725082 0
M  V30 48 C 2.193892 -6.395381 2.065271 0
M  V30 49 C -2.683550 -4.228324 -3.165702 0
M  V30 50 C 0.566057 -6.596096 -1.454307 0
M  V30 51 C 5.334157 -2.346739 3.992253 0
M  V30 52 C 0.467073 -7.805968 -2.368584 0
M  V30 53 C -2.353424 -1.841667 -3.512602 0
M  V30 54 H -0.677441 -6.663354 -3.436060 0
M  V30 55 H -1.504012 -2.031096 1.267400 0
M  V30 56 H -0.008750 -1.689409 2.690281 0
M  V30 57 H -3.741765 3.097550 0.614300 0
M  V30 58 H -3.112923 3.385007 3.371748 0
M  V30 59 H -4.230960 2.101122 2.807896 0
M  V30 60 H -2.853677 1.687556 3.880117 0
M  V30 61 H 0.703762 3.590909 2.691353 0
M  V30 62 H -0.512356 5.497432 2.045962 0
M  V30 63 H -4.097967 0.570519 0.622133 0
M  V30 64 H 1.605301 1.646554 2.816373 0
M  V30 65 H -4.227388 -5.221423 -1.068321 0
M  V30 66 H -5.581359 -4.108286 -1.204766 0
M  V30 67 H -6.042359 -0.837434 0.047189 0
M  V30 68 H -5.161462 -0.430072 -1.483600 0
M  V30 69 H -6.093853 -1.947680 -1.353666 0
M  V30 70 H -2.121445 -5.250509 -0.487182 0
M  V30 71 H -4.663975 2.203646 -2.690965 0
M  V30 72 H -4.768344 1.967938 -0.921034 0
M  V30 73 H -4.473371 3.639515 -1.635084 0
M  V30 74 H -4.741554 -4.689710 -3.462726 0
M  V30 75 H -4.518150 -2.963991 -3.190294 0
M  V30 76 H 0.585598 -3.547388 3.844374 0
M  V30 77 H 3.634310 1.411442 3.027522 0
M  V30 78 H 4.321351 0.451702 4.353827 0
M  V30 79 H 4.785474 0.152088 2.608570 0
M  V30 80 H 0.500514 -7.746417 0.400750 0
M  V30 81 H -1.089387 -7.192706 -0.152164 0
M  V30 82 H -3.866754 8.010063 0.791513 0
M  V30 83 H -2.275654 8.868236 0.807905 0
M  V30 84 H -2.767275 7.966992 -0.680165 0
M  V30 85 H 3.931711 -3.821393 3.812559 0
M  V30 86 H 2.977455 -5.910385 2.687751 0
M  V30 87 H 1.814544 -7.282841 2.620624 0
M  V30 88 H 2.691740 -6.743896 1.132414 0
M  V30 89 H 0.072474 -5.707844 -1.908389 0
M  V30 90 H 1.647980 -6.341587 -1.355849 0
M  V30 91 H 6.093853 -3.098468 4.261668 0
M  V30 92 H 5.694459 -1.313938 3.973711 0
M  V30 93 H -1.480369 -1.181125 -3.713297 0
M  V30 94 H -3.071436 -1.722582 -4.353827 0
M  V30 95 H -2.789140 -1.533132 -2.539031 0
M  V30 END ATOM
M  V30 BEGIN BOND
M  V30 1 1 1 22
M  V30 2 1 1 38
M  V30 3 2 2 22
M  V30 4 1 3 26
M  V30 5 1 3 46
M  V30 6 2 4 26
M  V30 7 1 5 49
M  V30 8 1 5 53
M  V30 9 2 6 49
M  V30 10 1 7 52
M  V30 11 1 7 54
M  V30 12 2 8 52
M  V30 13 1 9 16
M  V30 14 2 9 19
M  V30 15 1 10 25
M  V30 16 1 10 30
M  V30 17 1 10 55
M  V30 18 1 11 28
M  V30 19 1 11 34
M  V30 20 1 11 56
M  V30 21 1 12 37
M  V30 22 2 12 42
M  V30 23 1 13 14
M  V30 24 1 13 15
M  V30 25 1 13 16
M  V30 26 1 13 17
M  V30 27 1 14 18
M  V30 28 1 14 22
M  V30 29 1 14 57
M  V30 30 1 15 19
M  V30 31 2 15 20
M  V30 32 2 16 23
M  V30 33 1 17 58
M  V30 34 1 17 59
M  V30 35 1 17 60
M  V30 36 2 18 21
M  V30 37 1 18 26
M  V30 38 1 19 24
M  V30 39 1 20 21
M  V30 40 1 20 61
M  V30 41 1 21 62
M  V30 42 1 23 25
M  V30 43 1 23 63
M  V30 44 2 24 28
M  V30 45 1 24 64
M  V30 46 2 25 27
M  V30 47 1 27 29
M  V30 48 1 27 33
M  V30 49 1 28 31
M  V30 50 2 29 30
M  V30 51 1 29 32
M  V30 52 1 30 36
M  V30 53 2 31 35
M  V30 54 1 31 43
M  V30 55 1 32 40
M  V30 56 1 32 65
M  V30 57 1 32 66
M  V30 58 1 33 67
M  V30 59 1 33 68
M  V30 60 1 33 69
M  V30 61 1 34 35
M  V30 62 2 34 41
M  V30 63 1 35 47
M  V30 64 2 36 37
M  V30 65 1 36 70
M  V30 66 1 37 39
M  V30 67 1 38 71
M  V30 68 1 38 72
M  V30 69 1 38 73
M  V30 70 2 39 44
M  V30 71 1 39 45
M  V30 72 1 40 49
M  V30 73 1 40 74
M  V30 74 1 40 75
M  V30 75 1 41 42
M  V30 76 1 41 76
M  V30 77 1 42 44
M  V30 78 1 43 77
M  V30 79 1 43 78
M  V30 80 1 43 79
M  V30 81 1 44 48
M  V30 82 1 45 50
M  V30 83 1 45 80
M  V30 84 1 45 81
M  V30 85 1 46 82
M  V30 86 1 46 83
M  V30 87 1 46 84
M  V30 88 2 47 51
M  V30 89 1 47 85
M  V30 90 1 48 86
M  V30 91 1 48 87
M  V30 92 1 48 88
M  V30 93 1 50 52
M  V30 94 1 50 89
M  V30 95 1 50 90
M  V30 96 1 51 91
M  V30 97 1 51 92
M  V30 98 1 53 93
M  V30 99 1 53 94
M  V30 100 1 53 95
M  V30 END BOND
M  V30 END CTAB
M  END
