
  Chem3D Core 14.010291511103D

  0  0  0     0  0              0 V3000
M  V30 BEGIN CTAB
M  V30 COUNTS 60 64 0 0 0
M  V30 BEGIN ATOM
M  V30 1 O 4.133886 6.608833 -1.729351 0
M  V30 2 O 7.507536 6.128993 -1.942237 0
M  V30 3 N -0.262976 1.422738 2.209920 0
M  V30 4 N 1.235452 3.786526 1.622716 0
M  V30 5 N -6.551007 -4.381834 1.883825 0
M  V30 6 N 6.180735 7.529231 -3.048672 0
M  V30 7 N -0.782075 -6.860625 0.782985 0
M  V30 8 C 1.192963 1.399039 2.095165 0
M  V30 9 C -0.834662 2.505514 1.417136 0
M  V30 10 C 1.831430 2.738532 2.498824 0
M  V30 11 C -0.242418 3.876229 1.790409 0
M  V30 12 C -0.813969 0.115966 1.854572 0
M  V30 13 C -2.334147 -0.016882 2.066972 0
M  V30 14 C -2.810266 -1.472079 1.896753 0
M  V30 15 C 1.911140 4.497599 0.793881 0
M  V30 16 C -4.326388 -1.604521 2.083058 0
M  V30 17 C -4.959873 -2.963928 1.932017 0
M  V30 18 C 3.253004 4.370495 0.648089 0
M  V30 19 C 1.344944 5.430240 -0.014600 0
M  V30 20 C -4.452132 -4.182585 1.667774 0
M  V30 21 C 3.931838 5.121667 -0.225746 0
M  V30 22 C -6.284519 -3.155099 2.057484 0
M  V30 23 C 3.334960 6.029206 -0.998205 0
M  V30 24 C 2.014439 6.193794 -0.898126 0
M  V30 25 C -5.490767 -5.033589 1.648747 0
M  V30 26 C 5.225402 5.196498 -0.560763 0
M  V30 27 C -3.218116 -4.656151 1.441941 0
M  V30 28 C -5.348196 -6.342117 1.412537 0
M  V30 29 C 5.258989 6.151694 -1.506857 0
M  V30 30 C -3.053099 -5.970844 1.202214 0
M  V30 31 C -4.108257 -6.806406 1.187489 0
M  V30 32 C 6.394885 6.552336 -2.131843 0
M  V30 33 C -1.845520 -6.445878 0.979185 0
M  V30 34 H -7.507536 -4.802026 1.927052 0
M  V30 35 H 5.246932 7.881406 -3.204924 0
M  V30 36 H 6.976638 7.883125 -3.558609 0
M  V30 37 H 1.614815 0.602865 2.755790 0
M  V30 38 H 1.501348 1.157367 1.049399 0
M  V30 39 H -1.935433 2.572042 1.583906 0
M  V30 40 H -0.669527 2.322947 0.328265 0
M  V30 41 H 1.569319 2.969390 3.558609 0
M  V30 42 H 2.933124 2.635941 2.501513 0
M  V30 43 H -0.775919 4.670089 1.234128 0
M  V30 44 H -0.462468 4.093369 2.862822 0
M  V30 45 H -0.328926 -0.663698 2.491054 0
M  V30 46 H -0.573053 -0.137075 0.794480 0
M  V30 47 H -2.885763 0.612446 1.329956 0
M  V30 48 H -2.596806 0.344560 3.089803 0
M  V30 49 H -2.289608 -2.105269 2.653916 0
M  V30 50 H -2.529937 -1.815348 0.872425 0
M  V30 51 H -4.831555 -0.929692 1.350766 0
M  V30 52 H -4.590196 -1.232826 3.102347 0
M  V30 53 H 3.884064 3.667449 1.205223 0
M  V30 54 H 0.268045 5.644723 -0.019946 0
M  V30 55 H -7.072929 -2.425709 2.273040 0
M  V30 56 H 1.499228 6.936239 -1.529639 0
M  V30 57 H 6.054169 4.607681 -0.149749 0
M  V30 58 H -2.337988 -3.999444 1.447450 0
M  V30 59 H -6.220885 -7.014455 1.403267 0
M  V30 60 H -3.967948 -7.883125 0.990271 0
M  V30 END ATOM
M  V30 BEGIN BOND
M  V30 1 1 1 23
M  V30 2 1 29 1
M  V30 3 2 2 32
M  V30 4 1 3 8
M  V30 5 1 3 9
M  V30 6 1 3 12
M  V30 7 1 10 4
M  V30 8 1 4 11
M  V30 9 1 4 15
M  V30 10 1 5 22
M  V30 11 1 25 5
M  V30 12 1 5 34
M  V30 13 1 6 32
M  V30 14 1 6 35
M  V30 15 1 6 36
M  V30 16 3 7 33
M  V30 17 1 8 10
M  V30 18 1 8 37
M  V30 19 1 8 38
M  V30 20 1 11 9
M  V30 21 1 9 39
M  V30 22 1 9 40
M  V30 23 1 10 41
M  V30 24 1 10 42
M  V30 25 1 11 43
M  V30 26 1 11 44
M  V30 27 1 12 13
M  V30 28 1 12 45
M  V30 29 1 12 46
M  V30 30 1 13 14
M  V30 31 1 13 47
M  V30 32 1 13 48
M  V30 33 1 14 16
M  V30 34 1 14 49
M  V30 35 1 14 50
M  V30 36 1 15 18
M  V30 37 2 19 15
M  V30 38 1 16 17
M  V30 39 1 16 51
M  V30 40 1 16 52
M  V30 41 1 17 20
M  V30 42 2 22 17
M  V30 43 2 18 21
M  V30 44 1 18 53
M  V30 45 1 24 19
M  V30 46 1 19 54
M  V30 47 2 25 20
M  V30 48 1 20 27
M  V30 49 1 23 21
M  V30 50 1 21 26
M  V30 51 1 22 55
M  V30 52 2 23 24
M  V30 53 1 24 56
M  V30 54 1 28 25
M  V30 55 2 29 26
M  V30 56 1 26 57
M  V30 57 2 30 27
M  V30 58 1 27 58
M  V30 59 2 31 28
M  V30 60 1 28 59
M  V30 61 1 29 32
M  V30 62 1 30 31
M  V30 63 1 30 33
M  V30 64 1 31 60
M  V30 END BOND
M  V30 END CTAB
M  END
