
  Chem3D Core 14.010291511143D

  0  0  0     0  0              0 V3000
M  V30 BEGIN CTAB
M  V30 COUNTS 117 125 0 0 0
M  V30 BEGIN ATOM
M  V30 1 C -2.174135 -2.655413 -0.353553 0
M  V30 2 C -0.830679 -0.448300 -0.886686 0
M  V30 3 C -0.844085 -2.720356 -0.500486 0
M  V30 4 C 4.392379 -0.436142 -1.055989 0
M  V30 5 C 4.190864 -1.257568 -3.359202 0
M  V30 6 C 4.945109 -0.662588 -2.429399 0
M  V30 7 C -0.160684 -1.600057 -0.753648 0
M  V30 8 C 1.341031 -1.825583 -0.798360 0
M  V30 9 C 1.914449 -1.315902 0.541833 0
M  V30 10 N 2.993131 -0.062103 -1.147973 0
M  V30 11 C 2.411808 0.084198 0.176078 0
M  V30 12 C 2.783503 -1.749788 -3.061895 0
M  V30 13 O 2.026068 -5.315394 -2.047074 0
M  V30 14 C 1.297317 -3.366558 -0.867201 0
M  V30 15 H 1.975244 -3.797562 -0.093170 0
M  V30 16 C 2.133787 -1.016706 -1.856535 0
M  V30 17 H 1.359857 -0.361094 -2.322396 0
M  V30 18 C 1.985762 -1.468213 -4.369636 0
M  V30 19 C 2.076725 -0.030142 -4.915406 0
M  V30 20 C 2.929563 -3.266762 -2.776880 0
M  V30 21 O 3.947687 -3.447506 -1.823715 0
M  V30 22 C 5.153460 -5.040740 -3.262966 0
M  V30 23 C 5.020826 -4.282002 -1.953280 0
M  V30 24 O 5.844709 -4.400236 -1.069828 0
M  V30 25 C 1.666959 -3.953655 -2.239625 0
M  V30 26 C 0.584597 -4.066286 -3.319498 0
M  V30 27 C -1.520977 -3.353861 -4.117049 0
M  V30 28 O 0.782294 -4.806033 -4.256933 0
M  V30 29 O -0.527227 -3.317771 -3.122575 0
M  V30 30 N -0.078273 -3.733678 -0.459703 0
M  V30 31 C -0.592394 -5.080019 -0.155203 0
M  V30 32 C -1.936159 2.047875 -1.559176 0
M  V30 33 C -0.737596 3.869292 -4.211242 0
M  V30 34 C 0.590121 4.440650 -1.899118 0
M  V30 35 C 0.913938 5.050314 -3.053290 0
M  V30 36 C -1.046116 3.273647 -3.055035 0
M  V30 37 C -3.076329 4.035177 2.805640 0
M  V30 38 C -5.154120 2.966943 1.734822 0
M  V30 39 C -0.402512 3.541360 -1.916537 0
M  V30 40 N -1.922233 2.403809 -2.784497 0
M  V30 41 C -3.320014 3.928206 0.457000 0
M  V30 42 C -0.953801 2.772377 -0.961668 0
M  V30 43 C -0.476497 2.796965 0.470730 0
M  V30 44 C -3.676094 1.395876 0.278224 0
M  V30 45 C 0.260606 4.768925 -4.195642 0
M  V30 46 C -4.341325 2.792487 0.426069 0
M  V30 47 N -2.453315 3.599276 1.573212 0
M  V30 48 C -1.068453 3.933062 1.341592 0
M  V30 49 C -4.343218 3.181391 3.036666 0
M  V30 50 O -5.172705 3.891206 3.922800 0
M  V30 51 C -2.862915 -1.500617 -0.475405 0
M  V30 52 O -4.235587 -1.460266 -0.404112 0
M  V30 53 C -4.977096 -2.631862 -0.651257 0
M  V30 54 C -4.000025 1.838520 3.712248 0
M  V30 55 C -3.642704 1.919984 5.205915 0
M  V30 56 C -2.171592 -0.369087 -0.775381 0
M  V30 57 C -2.899026 0.984003 -1.009469 0
M  V30 58 C -3.921920 0.726615 -2.145548 0
M  V30 59 C -4.175847 -0.335437 -4.246431 0
M  V30 60 O -3.368315 -0.048288 -3.129518 0
M  V30 61 O -5.062342 1.132839 -2.177924 0
M  V30 62 H -2.713602 -3.592889 -0.160201 0
M  V30 63 H -0.235138 0.441075 -1.110187 0
M  V30 64 H 4.963439 0.405659 -0.595185 0
M  V30 65 H 4.567191 -1.339268 -0.430820 0
M  V30 66 H 4.625752 -1.463112 -4.351432 0
M  V30 67 H 5.986700 -0.375939 -2.647142 0
M  V30 68 H 1.180334 -1.313099 1.378443 0
M  V30 69 H 2.784671 -1.933287 0.863416 0
M  V30 70 H 1.554338 0.790965 0.130459 0
M  V30 71 H 3.118576 0.503908 0.927050 0
M  V30 72 H 1.876697 -5.793670 -2.872217 0
M  V30 73 H 2.325314 -2.157265 -5.179776 0
M  V30 74 H 0.906979 -1.681262 -4.215687 0
M  V30 75 H 1.428419 0.087415 -5.814663 0
M  V30 76 H 1.742860 0.732541 -4.177548 0
M  V30 77 H 3.108743 0.239818 -5.231184 0
M  V30 78 H 3.210831 -3.745285 -3.737989 0
M  V30 79 H 4.283280 -5.707971 -3.450079 0
M  V30 80 H 5.312449 -4.343259 -4.116044 0
M  V30 81 H 6.048679 -5.702310 -3.231113 0
M  V30 82 H -2.367948 -2.722454 -3.768161 0
M  V30 83 H -1.124502 -2.938158 -5.070029 0
M  V30 84 H -1.889545 -4.394674 -4.256004 0
M  V30 85 H -1.193189 -5.085822 0.781902 0
M  V30 86 H -1.198927 -5.470339 -1.003869 0
M  V30 87 H 0.254944 -5.781419 0.011092 0
M  V30 88 H -1.282054 3.628015 -5.137676 0
M  V30 89 H 1.132611 4.682470 -0.972125 0
M  V30 90 H 1.729133 5.793670 -3.063045 0
M  V30 91 H -2.381043 3.910392 3.665311 0
M  V30 92 H -3.314475 5.123139 2.764897 0
M  V30 93 H -5.782832 3.880158 1.587716 0
M  V30 94 H -5.888540 2.137270 1.845953 0
M  V30 95 H -2.557831 2.025372 -3.524443 0
M  V30 96 H -2.812071 4.029691 -0.518178 0
M  V30 97 H -3.801370 4.925619 0.577262 0
M  V30 98 H 0.634276 2.893342 0.472315 0
M  V30 99 H -0.679459 1.810484 0.947704 0
M  V30 100 H -2.971247 1.214760 1.115580 0
M  V30 101 H -4.501913 0.674608 0.468688 0
M  V30 102 H 0.545310 5.281627 -5.129855 0
M  V30 103 H -5.031744 2.960934 -0.435223 0
M  V30 104 H -0.508611 3.935253 2.307860 0
M  V30 105 H -0.947759 4.941369 0.884984 0
M  V30 106 H -5.472665 4.699343 3.499983 0
M  V30 107 H -4.664871 -3.088245 -1.617474 0
M  V30 108 H -4.882683 -3.343454 0.198352 0
M  V30 109 H -6.048679 -2.341301 -0.731790 0
M  V30 110 H -4.868256 1.142619 3.623289 0
M  V30 111 H -3.146096 1.353671 3.188186 0
M  V30 112 H -3.387727 0.910669 5.604644 0
M  V30 113 H -2.763835 2.574492 5.396170 0
M  V30 114 H -4.493168 2.301824 5.814663 0
M  V30 115 H -3.562634 -0.908837 -4.976594 0
M  V30 116 H -5.044178 -0.959547 -3.936891 0
M  V30 117 H -4.509407 0.608335 -4.732859 0
M  V30 END ATOM
M  V30 BEGIN BOND
M  V30 1 1 1 3
M  V30 2 2 51 1
M  V30 3 1 1 62
M  V30 4 1 2 7
M  V30 5 2 2 56
M  V30 6 1 2 63
M  V30 7 2 3 7
M  V30 8 1 3 30
M  V30 9 1 4 6
M  V30 10 1 4 10
M  V30 11 1 4 64
M  V30 12 1 4 65
M  V30 13 2 5 6
M  V30 14 1 12 5
M  V30 15 1 5 66
M  V30 16 1 6 67
M  V30 17 1 8 7
M  V30 18 1 8 9
M  V30 19 1 14 8
M  V30 20 1 8 16
M  V30 21 1 11 9
M  V30 22 1 9 68
M  V30 23 1 9 69
M  V30 24 1 10 11
M  V30 25 1 16 10
M  V30 26 1 11 70
M  V30 27 1 11 71
M  V30 28 1 16 12
M  V30 29 1 12 18
M  V30 30 1 20 12
M  V30 31 1 25 13
M  V30 32 1 13 72
M  V30 33 1 14 15
M  V30 34 1 14 25
M  V30 35 1 14 30
M  V30 36 1 16 17
M  V30 37 1 18 19
M  V30 38 1 18 73
M  V30 39 1 18 74
M  V30 40 1 19 75
M  V30 41 1 19 76
M  V30 42 1 19 77
M  V30 43 1 20 21
M  V30 44 1 25 20
M  V30 45 1 20 78
M  V30 46 1 21 23
M  V30 47 1 23 22
M  V30 48 1 22 79
M  V30 49 1 22 80
M  V30 50 1 22 81
M  V30 51 2 23 24
M  V30 52 1 25 26
M  V30 53 2 26 28
M  V30 54 1 26 29
M  V30 55 1 29 27
M  V30 56 1 27 82
M  V30 57 1 27 83
M  V30 58 1 27 84
M  V30 59 1 30 31
M  V30 60 1 31 85
M  V30 61 1 31 86
M  V30 62 1 31 87
M  V30 63 1 32 40
M  V30 64 2 42 32
M  V30 65 1 32 57
M  V30 66 2 36 33
M  V30 67 1 33 45
M  V30 68 1 33 88
M  V30 69 1 35 34
M  V30 70 2 34 39
M  V30 71 1 34 89
M  V30 72 2 45 35
M  V30 73 1 35 90
M  V30 74 1 36 39
M  V30 75 1 40 36
M  V30 76 1 47 37
M  V30 77 1 49 37
M  V30 78 1 37 91
M  V30 79 1 37 92
M  V30 80 1 38 46
M  V30 81 1 49 38
M  V30 82 1 38 93
M  V30 83 1 38 94
M  V30 84 1 42 39
M  V30 85 1 40 95
M  V30 86 1 46 41
M  V30 87 1 41 47
M  V30 88 1 41 96
M  V30 89 1 41 97
M  V30 90 1 43 42
M  V30 91 1 48 43
M  V30 92 1 43 98
M  V30 93 1 43 99
M  V30 94 1 46 44
M  V30 95 1 57 44
M  V30 96 1 44 100
M  V30 97 1 44 101
M  V30 98 1 45 102
M  V30 99 1 46 103
M  V30 100 1 47 48
M  V30 101 1 48 104
M  V30 102 1 48 105
M  V30 103 1 49 50
M  V30 104 1 49 54
M  V30 105 1 50 106
M  V30 106 1 51 52
M  V30 107 1 56 51
M  V30 108 1 52 53
M  V30 109 1 53 107
M  V30 110 1 53 108
M  V30 111 1 53 109
M  V30 112 1 54 55
M  V30 113 1 54 110
M  V30 114 1 54 111
M  V30 115 1 55 112
M  V30 116 1 55 113
M  V30 117 1 55 114
M  V30 118 1 57 56
M  V30 119 1 57 58
M  V30 120 1 58 60
M  V30 121 2 58 61
M  V30 122 1 60 59
M  V30 123 1 59 115
M  V30 124 1 59 116
M  V30 125 1 59 117
M  V30 END BOND
M  V30 END CTAB
M  END
