
  Chem3D Core 15.010081509253D

116124  0  0  0  0  0  0  0  0999 V2000
    5.4476   -0.4790    0.9069 O   0  0  0  0  0  0  0  0  0  0  0  0
    5.3741    0.1392   -1.6409 O   0  0  0  0  0  0  0  0  0  0  0  0
    4.7048   -2.9605    1.1320 O   0  0  0  0  0  0  0  0  0  0  0  0
    2.5209   -2.3540    0.9772 O   0  0  0  0  0  0  0  0  0  0  0  0
    3.2083    0.4816    3.7858 O   0  0  0  0  0  0  0  0  0  0  0  0
   -1.6836   -0.5260    3.1927 O   0  0  0  0  0  0  0  0  0  0  0  0
    7.1184   -0.9560   -2.6616 O   0  0  0  0  0  0  0  0  0  0  0  0
   -1.2822   -2.9663   -0.2414 O   0  0  0  0  0  0  0  0  0  0  0  0
   -2.8272   -2.1966   -1.7281 O   0  0  0  0  0  0  0  0  0  0  0  0
   -7.8524   -2.4090    2.2264 O   0  0  0  0  0  0  0  0  0  0  0  0
    2.6858    0.5187    1.6637 N   0  0  0  0  0  0  0  0  0  0  0  0
    1.9946    0.5248   -3.1404 N   0  0  0  0  0  0  0  0  0  0  0  0
   -2.7041    0.5867   -1.5220 N   0  0  0  0  0  0  0  0  0  0  0  0
   -6.3484   -0.1819    1.4960 N   0  0  0  0  0  0  0  0  0  0  0  0
    2.2015    0.4519   -0.7158 C   0  0  0  0  0  0  0  0  0  0  0  0
    3.3430    0.4331    0.3180 C   0  0  0  0  0  0  0  0  0  0  0  0
    2.3187   -0.3699   -2.0238 C   0  0  0  0  0  0  0  0  0  0  0  0
    4.2602   -0.8053    0.2028 C   0  0  0  0  0  0  0  0  0  0  0  0
    3.5321   -1.3169   -2.2493 C   0  0  0  0  0  0  0  0  0  0  0  0
    1.1010    0.0732    0.2527 C   0  0  0  0  0  0  0  0  0  0  0  0
    4.6825   -1.0226   -1.2540 C   0  0  0  0  0  0  0  0  0  0  0  0
    1.4589    0.2094    1.5336 C   0  0  0  0  0  0  0  0  0  0  0  0
    1.8525    1.8748   -1.2096 C   0  0  0  0  0  0  0  0  0  0  0  0
    3.6934   -2.1023    0.8150 C   0  0  0  0  0  0  0  0  0  0  0  0
    1.2004    1.6003   -2.5678 C   0  0  0  0  0  0  0  0  0  0  0  0
    4.1393   -1.1701   -3.6340 C   0  0  0  0  0  0  0  0  0  0  0  0
   -0.1516   -0.2916   -0.0395 C   0  0  0  0  0  0  0  0  0  0  0  0
    3.0793   -2.8076   -2.1854 C   0  0  0  0  0  0  0  0  0  0  0  0
    3.1460    1.0605   -3.8439 C   0  0  0  0  0  0  0  0  0  0  0  0
    0.5189    0.0363    2.4747 C   0  0  0  0  0  0  0  0  0  0  0  0
    3.4495    0.7870    2.6382 C   0  0  0  0  0  0  0  0  0  0  0  0
   -1.0863   -0.5336    0.9023 C   0  0  0  0  0  0  0  0  0  0  0  0
    3.9800   -0.0654   -4.3693 C   0  0  0  0  0  0  0  0  0  0  0  0
   -0.7518   -0.3360    2.2032 C   0  0  0  0  0  0  0  0  0  0  0  0
   -2.4748   -0.9738    0.3750 C   0  0  0  0  0  0  0  0  0  0  0  0
    6.5459    0.0607   -2.3391 C   0  0  0  0  0  0  0  0  0  0  0  0
    2.2119   -3.2895   -3.3637 C   0  0  0  0  0  0  0  0  0  0  0  0
   -2.9863    0.2852   -0.3160 C   0  0  0  0  0  0  0  0  0  0  0  0
   -2.2446   -2.0965   -0.6705 C   0  0  0  0  0  0  0  0  0  0  0  0
   -3.4521   -1.6451    1.3686 C   0  0  0  0  0  0  0  0  0  0  0  0
   -3.7448    1.3016    0.1520 C   0  0  0  0  0  0  0  0  0  0  0  0
    4.3396   -4.2224    1.6376 C   0  0  0  0  0  0  0  0  0  0  0  0
    7.0386    1.4585   -2.6606 C   0  0  0  0  0  0  0  0  0  0  0  0
   -4.8347   -2.1281    0.8743 C   0  0  0  0  0  0  0  0  0  0  0  0
   -3.8688    2.1825   -0.8572 C   0  0  0  0  0  0  0  0  0  0  0  0
   -3.1945    1.6883   -1.8988 C   0  0  0  0  0  0  0  0  0  0  0  0
   -1.3402   -0.3524    4.5470 C   0  0  0  0  0  0  0  0  0  0  0  0
   -4.3867    1.4969    1.5001 C   0  0  0  0  0  0  0  0  0  0  0  0
   -5.8104   -1.0235    0.4346 C   0  0  0  0  0  0  0  0  0  0  0  0
   -5.5450   -3.0125    1.9278 C   0  0  0  0  0  0  0  0  0  0  0  0
   -4.5017    3.3583   -0.9671 C   0  0  0  0  0  0  0  0  0  0  0  0
   -3.1136    2.3218   -3.0729 C   0  0  0  0  0  0  0  0  0  0  0  0
   -6.5735   -2.2718    2.7962 C   0  0  0  0  0  0  0  0  0  0  0  0
   -5.9017    1.2070    1.4699 C   0  0  0  0  0  0  0  0  0  0  0  0
   -0.9325   -4.0192   -1.1066 C   0  0  0  0  0  0  0  0  0  0  0  0
   -6.2708   -0.7723    2.8241 C   0  0  0  0  0  0  0  0  0  0  0  0
   -4.4333    4.0105   -2.1414 C   0  0  0  0  0  0  0  0  0  0  0  0
   -3.7484    3.5011   -3.1819 C   0  0  0  0  0  0  0  0  0  0  0  0
   -6.6348   -2.8464    4.2204 C   0  0  0  0  0  0  0  0  0  0  0  0
   -7.0339   -4.3280    4.2851 C   0  0  0  0  0  0  0  0  0  0  0  0
    3.9613    1.3497    0.1608 H   0  0  0  0  0  0  0  0  0  0  0  0
    1.4399   -1.0573   -1.9813 H   0  0  0  0  0  0  0  0  0  0  0  0
    5.9374    0.2085    0.4505 H   0  0  0  0  0  0  0  0  0  0  0  0
   -7.9680   -1.7475    1.5401 H   0  0  0  0  0  0  0  0  0  0  0  0
   -2.1246   -0.0147   -2.1525 H   0  0  0  0  0  0  0  0  0  0  0  0
    5.3907   -1.8822   -1.2598 H   0  0  0  0  0  0  0  0  0  0  0  0
    1.1925    2.4507   -0.5227 H   0  0  0  0  0  0  0  0  0  0  0  0
    2.7733    2.4829   -1.3623 H   0  0  0  0  0  0  0  0  0  0  0  0
    0.1468    1.2637   -2.4340 H   0  0  0  0  0  0  0  0  0  0  0  0
    1.1527    2.5059   -3.2138 H   0  0  0  0  0  0  0  0  0  0  0  0
    4.7873   -1.9769   -4.0154 H   0  0  0  0  0  0  0  0  0  0  0  0
   -0.4116   -0.3936   -1.1003 H   0  0  0  0  0  0  0  0  0  0  0  0
    3.9706   -3.4777   -2.1305 H   0  0  0  0  0  0  0  0  0  0  0  0
    2.4965   -3.0002   -1.2593 H   0  0  0  0  0  0  0  0  0  0  0  0
    2.7947    1.6598   -4.7181 H   0  0  0  0  0  0  0  0  0  0  0  0
    3.7802    1.7218   -3.2138 H   0  0  0  0  0  0  0  0  0  0  0  0
    0.8149    0.1928    3.5188 H   0  0  0  0  0  0  0  0  0  0  0  0
    4.3799    1.3820    2.4650 H   0  0  0  0  0  0  0  0  0  0  0  0
    4.4861    0.0431   -5.3422 H   0  0  0  0  0  0  0  0  0  0  0  0
    1.8539   -4.3303   -3.1866 H   0  0  0  0  0  0  0  0  0  0  0  0
    1.3105   -2.6560   -3.5164 H   0  0  0  0  0  0  0  0  0  0  0  0
    2.7723   -3.3075   -4.3246 H   0  0  0  0  0  0  0  0  0  0  0  0
   -2.9141   -2.5250    1.7971 H   0  0  0  0  0  0  0  0  0  0  0  0
   -3.6522   -0.9973    2.2332 H   0  0  0  0  0  0  0  0  0  0  0  0
    5.2728   -4.7988    1.8251 H   0  0  0  0  0  0  0  0  0  0  0  0
    3.7905   -4.1061    2.5988 H   0  0  0  0  0  0  0  0  0  0  0  0
    3.7252   -4.7710    0.8886 H   0  0  0  0  0  0  0  0  0  0  0  0
    7.1381    2.0611   -1.7295 H   0  0  0  0  0  0  0  0  0  0  0  0
    8.0349    1.4216   -3.1560 H   0  0  0  0  0  0  0  0  0  0  0  0
    6.3290    1.9683   -3.3506 H   0  0  0  0  0  0  0  0  0  0  0  0
   -4.6386   -2.7873   -0.0091 H   0  0  0  0  0  0  0  0  0  0  0  0
   -2.2496   -0.5665    5.1526 H   0  0  0  0  0  0  0  0  0  0  0  0
   -0.5516   -1.0786    4.8454 H   0  0  0  0  0  0  0  0  0  0  0  0
   -1.0423    0.7020    4.7414 H   0  0  0  0  0  0  0  0  0  0  0  0
   -3.8577    0.9708    2.3160 H   0  0  0  0  0  0  0  0  0  0  0  0
   -4.2380    2.5699    1.7712 H   0  0  0  0  0  0  0  0  0  0  0  0
   -6.6757   -1.5552   -0.0348 H   0  0  0  0  0  0  0  0  0  0  0  0
   -5.4209   -0.4321   -0.4191 H   0  0  0  0  0  0  0  0  0  0  0  0
   -4.7747   -3.4903    2.5747 H   0  0  0  0  0  0  0  0  0  0  0  0
   -6.0572   -3.8632    1.4176 H   0  0  0  0  0  0  0  0  0  0  0  0
   -5.0656    3.7900   -0.1257 H   0  0  0  0  0  0  0  0  0  0  0  0
   -2.5470    1.8906   -3.9133 H   0  0  0  0  0  0  0  0  0  0  0  0
   -6.3413    1.6995    0.5693 H   0  0  0  0  0  0  0  0  0  0  0  0
   -6.3723    1.7441    2.3296 H   0  0  0  0  0  0  0  0  0  0  0  0
   -0.0953   -4.5834   -0.6381 H   0  0  0  0  0  0  0  0  0  0  0  0
   -1.7999   -4.7029   -1.2444 H   0  0  0  0  0  0  0  0  0  0  0  0
   -0.5836   -3.6133   -2.0821 H   0  0  0  0  0  0  0  0  0  0  0  0
   -7.0213   -0.2693    3.4808 H   0  0  0  0  0  0  0  0  0  0  0  0
   -5.2938   -0.5925    3.3189 H   0  0  0  0  0  0  0  0  0  0  0  0
   -4.9471    4.9804   -2.2529 H   0  0  0  0  0  0  0  0  0  0  0  0
   -3.7059    4.0558   -4.1344 H   0  0  0  0  0  0  0  0  0  0  0  0
   -5.6439   -2.7118    4.7162 H   0  0  0  0  0  0  0  0  0  0  0  0
   -7.3716   -2.2619    4.8222 H   0  0  0  0  0  0  0  0  0  0  0  0
   -7.0849   -4.6774    5.3422 H   0  0  0  0  0  0  0  0  0  0  0  0
   -8.0349   -4.5008    3.8291 H   0  0  0  0  0  0  0  0  0  0  0  0
   -6.3014   -4.9804    3.7596 H   0  0  0  0  0  0  0  0  0  0  0  0
 18  1  1  0      
  1 63  1  0      
 21  2  1  0      
  2 36  1  0      
  3 24  1  0      
  3 42  1  0      
  4 24  2  0      
  5 31  2  0      
  6 34  1  0      
  6 47  1  0      
  7 36  2  0      
  8 39  1  0      
  8 55  1  0      
  9 39  2  0      
 53 10  1  0      
 10 64  1  0      
 16 11  1  0      
 11 22  1  0      
 11 31  1  0      
 12 17  1  0      
 12 25  1  0      
 29 12  1  0      
 13 38  1  0      
 46 13  1  0      
 13 65  1  0      
 14 49  1  0      
 54 14  1  0      
 14 56  1  0      
 15 16  1  0      
 15 17  1  0      
 15 20  1  0      
 23 15  1  0      
 16 18  1  0      
 16 61  1  0      
 19 17  1  0      
 17 62  1  0      
 18 21  1  0      
 18 24  1  0      
 19 21  1  0      
 19 26  1  0      
 19 28  1  0      
 22 20  2  0      
 27 20  1  0      
 21 66  1  0      
 22 30  1  0      
 25 23  1  0      
 23 67  1  0      
 23 68  1  0      
 25 69  1  0      
 25 70  1  0      
 26 33  2  0      
 26 71  1  0      
 32 27  2  0      
 27 72  1  0      
 28 37  1  0      
 28 73  1  0      
 28 74  1  0      
 33 29  1  0      
 29 75  1  0      
 29 76  1  0      
 30 34  2  0      
 30 77  1  0      
 31 78  1  0      
 34 32  1  0      
 35 32  1  0      
 33 79  1  0      
 38 35  1  0      
 35 39  1  0      
 35 40  1  0      
 36 43  1  0      
 37 80  1  0      
 37 81  1  0      
 37 82  1  0      
 38 41  2  0      
 44 40  1  0      
 40 83  1  0      
 40 84  1  0      
 45 41  1  0      
 41 48  1  0      
 42 85  1  0      
 42 86  1  0      
 42 87  1  0      
 43 88  1  0      
 43 89  1  0      
 43 90  1  0      
 49 44  1  0      
 44 50  1  0      
 44 91  1  0      
 46 45  2  0      
 45 51  1  0      
 52 46  1  0      
 47 92  1  0      
 47 93  1  0      
 47 94  1  0      
 48 54  1  0      
 48 95  1  0      
 48 96  1  0      
 49 97  1  0      
 49 98  1  0      
 50 53  1  0      
 50 99  1  0      
 50100  1  0      
 57 51  2  0      
 51101  1  0      
 58 52  2  0      
 52102  1  0      
 56 53  1  0      
 53 59  1  0      
 54103  1  0      
 54104  1  0      
 55105  1  0      
 55106  1  0      
 55107  1  0      
 56108  1  0      
 56109  1  0      
 57 58  1  0      
 57110  1  0      
 58111  1  0      
 59 60  1  0      
 59112  1  0      
 59113  1  0      
 60114  1  0      
 60115  1  0      
 60116  1  0      
M  END
