
  Chem3D Core 14.010291510383D

  0  0  0     0  0              0 V3000
M  V30 BEGIN CTAB
M  V30 COUNTS 91 92 0 0 0
M  V30 BEGIN ATOM
M  V30 1 C -3.604549 0.249600 -2.073595 0
M  V30 2 C -2.956541 1.129709 -0.963215 0
M  V30 3 C -2.752889 -0.154229 -3.286483 0
M  V30 4 N -4.103386 -1.024791 -1.493681 0
M  V30 5 N -3.811510 1.001515 0.240225 0
M  V30 6 C -2.913539 2.625912 -1.306834 0
M  V30 7 C -1.719915 -1.183930 -2.840925 0
M  V30 8 C -3.533566 -2.157710 -1.580372 0
M  V30 9 C -3.725530 -0.058954 1.097630 0
M  V30 10 N -1.856066 3.121579 -2.024414 0
M  V30 11 O -3.787041 3.367632 -0.933448 0
M  V30 12 N -2.403237 -2.283609 -2.142443 0
M  V30 13 O -0.976222 -1.652375 -3.951341 0
M  V30 14 N -4.070892 -3.169574 -1.044986 0
M  V30 15 C -2.487110 -0.521307 1.443622 0
M  V30 16 O -4.756590 -0.593021 1.434382 0
M  V30 17 C -0.742992 2.357083 -2.595833 0
M  V30 18 N -1.499485 0.395562 1.550595 0
M  V30 19 C -2.324385 -1.852700 1.594832 0
M  V30 20 C 0.646823 2.824873 -2.138601 0
M  V30 21 C -0.150612 0.270057 1.653133 0
M  V30 22 N -1.179644 -2.484457 1.914677 0
M  V30 23 C 0.796206 2.789308 -0.615199 0
M  V30 24 N 1.822922 2.161499 -2.737645 0
M  V30 25 C 0.484099 1.119076 2.753152 0
M  V30 26 O 0.488399 -0.505346 0.992022 0
M  V30 27 C -0.924735 -3.823811 1.928062 0
M  V30 28 N 2.085600 2.916634 -0.191573 0
M  V30 29 O -0.130697 2.678179 0.144106 0
M  V30 30 C 1.821554 0.992179 -3.454692 0
M  V30 31 N 1.953821 1.094217 2.727174 0
M  V30 32 C -0.297736 2.297665 3.332630 0
M  V30 33 N 0.344106 -4.212667 2.229476 0
M  V30 34 O -1.753186 -4.652556 1.669062 0
M  V30 35 C 2.494881 3.040942 1.207033 0
M  V30 36 C 3.199363 0.360864 -3.579124 0
M  V30 37 O 0.843624 0.466604 -3.920377 0
M  V30 38 C 2.836708 1.706842 1.879840 0
M  V30 39 O -1.549594 1.849724 3.821138 0
M  V30 40 C 1.948974 4.238052 1.981990 0
M  V30 41 C 3.710722 -0.119090 -2.206316 0
M  V30 42 O 3.919967 1.200063 1.715538 0
M  V30 43 O 2.346749 4.142071 3.332784 0
M  V30 44 C 2.681378 -0.948031 -1.413120 0
M  V30 45 N 4.103472 1.051207 -1.393603 0
M  V30 46 C 2.181062 -2.207196 -2.139036 0
M  V30 47 C 1.167168 -2.997714 -1.297998 0
M  V30 48 N 0.552852 -4.074769 -2.091087 0
M  V30 49 H -4.516869 0.783809 -2.437163 0
M  V30 50 H -1.941898 0.762664 -0.718718 0
M  V30 51 H -2.311426 0.718392 -3.807681 0
M  V30 52 H -3.414826 -0.636121 -4.046970 0
M  V30 53 H -5.014459 -1.015373 -0.968494 0
M  V30 54 H -4.711816 1.476461 0.197557 0
M  V30 55 H -0.978782 -0.779621 -2.119750 0
M  V30 56 H -1.887243 4.129233 -2.178054 0
M  V30 57 H -1.949335 -3.230769 -2.141642 0
M  V30 58 H -0.278980 -1.025483 -4.160327 0
M  V30 59 H -3.493454 -4.005160 -1.154254 0
M  V30 60 H -0.801407 1.294758 -2.306481 0
M  V30 61 H -0.819302 2.464399 -3.703463 0
M  V30 62 H -1.886794 1.316523 1.704338 0
M  V30 63 H -3.180563 -2.526975 1.432073 0
M  V30 64 H 0.734813 3.907972 -2.403982 0
M  V30 65 H -0.428314 -1.845991 2.111037 0
M  V30 66 H 2.742921 2.522918 -2.480913 0
M  V30 67 H 0.335149 0.375214 3.588682 0
M  V30 68 H 2.828645 2.908171 -0.890839 0
M  V30 69 H 2.393677 0.341028 3.256741 0
M  V30 70 H -0.548803 3.075448 2.588767 0
M  V30 71 H 0.232406 2.755802 4.196496 0
M  V30 72 H 0.542931 -5.203048 2.230102 0
M  V30 73 H 1.061683 -3.527435 2.421397 0
M  V30 74 H 3.549228 3.414240 1.060092 0
M  V30 75 H 3.155120 -0.496424 -4.290111 0
M  V30 76 H 3.902933 1.102699 -4.023493 0
M  V30 77 H -1.996916 2.556678 4.290111 0
M  V30 78 H 0.850444 4.339567 1.941236 0
M  V30 79 H 2.346540 5.203048 1.591777 0
M  V30 80 H 4.630475 -0.736686 -2.353205 0
M  V30 81 H 2.128962 4.947061 3.806697 0
M  V30 82 H 3.132216 -1.250851 -0.437626 0
M  V30 83 H 1.808906 -0.298032 -1.171692 0
M  V30 84 H 4.270384 0.769912 -0.411146 0
M  V30 85 H 5.014459 1.421673 -1.715537 0
M  V30 86 H 1.691329 -1.924676 -3.098647 0
M  V30 87 H 3.046616 -2.863564 -2.393071 0
M  V30 88 H 1.657784 -3.430977 -0.395976 0
M  V30 89 H 0.348059 -2.330307 -0.948932 0
M  V30 90 H -0.191498 -4.541470 -1.543797 0
M  V30 91 H 0.070500 -3.679486 -2.917775 0
M  V30 END ATOM
M  V30 BEGIN BOND
M  V30 1 1 1 2
M  V30 2 1 3 1
M  V30 3 1 1 4
M  V30 4 1 1 49
M  V30 5 1 5 2
M  V30 6 1 2 6
M  V30 7 1 2 50
M  V30 8 1 7 3
M  V30 9 1 3 51
M  V30 10 1 3 52
M  V30 11 1 4 8
M  V30 12 1 4 53
M  V30 13 1 9 5
M  V30 14 1 5 54
M  V30 15 1 6 10
M  V30 16 2 6 11
M  V30 17 1 7 12
M  V30 18 1 7 13
M  V30 19 1 7 55
M  V30 20 1 8 12
M  V30 21 2 8 14
M  V30 22 1 9 15
M  V30 23 2 9 16
M  V30 24 1 10 17
M  V30 25 1 10 56
M  V30 26 1 12 57
M  V30 27 1 13 58
M  V30 28 1 14 59
M  V30 29 1 18 15
M  V30 30 2 15 19
M  V30 31 1 17 20
M  V30 32 1 17 60
M  V30 33 1 17 61
M  V30 34 1 21 18
M  V30 35 1 18 62
M  V30 36 1 19 22
M  V30 37 1 19 63
M  V30 38 1 20 23
M  V30 39 1 20 24
M  V30 40 1 20 64
M  V30 41 1 25 21
M  V30 42 2 21 26
M  V30 43 1 22 27
M  V30 44 1 22 65
M  V30 45 1 23 28
M  V30 46 2 23 29
M  V30 47 1 24 30
M  V30 48 1 24 66
M  V30 49 1 31 25
M  V30 50 1 25 32
M  V30 51 1 25 67
M  V30 52 1 27 33
M  V30 53 2 27 34
M  V30 54 1 28 35
M  V30 55 1 28 68
M  V30 56 1 30 36
M  V30 57 2 30 37
M  V30 58 1 38 31
M  V30 59 1 31 69
M  V30 60 1 32 39
M  V30 61 1 32 70
M  V30 62 1 32 71
M  V30 63 1 33 72
M  V30 64 1 33 73
M  V30 65 1 35 38
M  V30 66 1 35 40
M  V30 67 1 35 74
M  V30 68 1 36 41
M  V30 69 1 36 75
M  V30 70 1 36 76
M  V30 71 2 38 42
M  V30 72 1 39 77
M  V30 73 1 40 43
M  V30 74 1 40 78
M  V30 75 1 40 79
M  V30 76 1 41 44
M  V30 77 1 41 45
M  V30 78 1 41 80
M  V30 79 1 43 81
M  V30 80 1 44 46
M  V30 81 1 44 82
M  V30 82 1 44 83
M  V30 83 1 45 84
M  V30 84 1 45 85
M  V30 85 1 46 47
M  V30 86 1 46 86
M  V30 87 1 46 87
M  V30 88 1 47 48
M  V30 89 1 47 88
M  V30 90 1 47 89
M  V30 91 1 48 90
M  V30 92 1 48 91
M  V30 END BOND
M  V30 END CTAB
M  END
