
  Chem3D Core 14.008131517583D

 41 43  0  0  0  0  0  0  0  0999 V2000
    3.0678    3.9083   -0.1111 O   0  0  0  0  0  0  0  0  0  0  0  0
    2.5886    2.8057   -0.2383 C   0  0  0  0  0  0  0  0  0  0  0  0
    1.2302    2.7673   -0.2987 N   0  0  0  0  0  0  0  0  0  0  0  0
    0.2728    1.8986    0.0892 C   0  0  0  0  0  0  0  0  0  0  0  0
    0.4897    0.8039    0.8279 C   0  0  0  0  0  0  0  0  0  0  0  0
   -0.5489    0.0275    1.1551 C   0  0  0  0  0  0  0  0  0  0  0  0
   -1.8062    0.3249    0.7769 C   0  0  0  0  0  0  0  0  0  0  0  0
   -2.9421   -0.8657    1.3466 Cl  0  0  0  0  0  0  0  0  0  0  0  0
   -2.0868    1.4414    0.0513 C   0  0  0  0  0  0  0  0  0  0  0  0
   -3.3276    1.8327   -0.3662 C   0  0  0  0  0  0  0  0  0  0  0  0
   -4.3396    1.1219   -0.0724 N   0  0  0  0  0  0  0  0  0  0  0  0
   -5.5207    1.4110   -0.4189 C   0  0  0  0  0  0  0  0  0  0  0  0
   -5.8433    2.4949   -1.1331 C   0  0  0  0  0  0  0  0  0  0  0  0
   -4.8253    3.2898   -1.4780 C   0  0  0  0  0  0  0  0  0  0  0  0
   -3.5853    2.9485   -1.0908 C   0  0  0  0  0  0  0  0  0  0  0  0
   -0.9967    2.1880   -0.2512 C   0  0  0  0  0  0  0  0  0  0  0  0
    3.3532    1.6811   -0.1237 C   0  0  0  0  0  0  0  0  0  0  0  0
    4.4225    1.7120    0.6967 C   0  0  0  0  0  0  0  0  0  0  0  0
    5.2053    0.6366    0.8728 C   0  0  0  0  0  0  0  0  0  0  0  0
    4.9481   -0.5029    0.2136 C   0  0  0  0  0  0  0  0  0  0  0  0
    5.9990   -1.9356    0.4276 S   0  0  0  0  0  0  0  0  0  0  0  0
    6.8829   -1.9500    1.5906 O   0  0  0  0  0  0  0  0  0  0  0  0
    4.9205   -3.2751    1.1099 C   0  0  0  0  0  0  0  0  0  0  0  0
    6.3290   -2.6933   -0.7767 O   0  0  0  0  0  0  0  0  0  0  0  0
    3.9104   -0.5324   -0.6377 C   0  0  0  0  0  0  0  0  0  0  0  0
    3.1174    0.5409   -0.8096 C   0  0  0  0  0  0  0  0  0  0  0  0
    1.8748    0.3862   -2.0109 Cl  0  0  0  0  0  0  0  0  0  0  0  0
    0.8094    3.6057   -0.6688 H   0  0  0  0  0  0  0  0  0  0  0  0
    1.4900    0.5296    1.1947 H   0  0  0  0  0  0  0  0  0  0  0  0
   -0.3284   -0.8687    1.7626 H   0  0  0  0  0  0  0  0  0  0  0  0
   -6.3103    0.7096   -0.0991 H   0  0  0  0  0  0  0  0  0  0  0  0
   -6.8829    2.7187   -1.4192 H   0  0  0  0  0  0  0  0  0  0  0  0
   -5.0103    4.2033   -2.0677 H   0  0  0  0  0  0  0  0  0  0  0  0
   -2.8182    3.6620   -1.4219 H   0  0  0  0  0  0  0  0  0  0  0  0
   -1.0741    3.1181   -0.8305 H   0  0  0  0  0  0  0  0  0  0  0  0
    4.6750    2.6153    1.2786 H   0  0  0  0  0  0  0  0  0  0  0  0
    6.0560    0.7005    1.5719 H   0  0  0  0  0  0  0  0  0  0  0  0
    5.5082   -4.2033    1.2935 H   0  0  0  0  0  0  0  0  0  0  0  0
    4.0979   -3.5042    0.3952 H   0  0  0  0  0  0  0  0  0  0  0  0
    4.4640   -2.9365    2.0677 H   0  0  0  0  0  0  0  0  0  0  0  0
    3.7219   -1.4533   -1.2158 H   0  0  0  0  0  0  0  0  0  0  0  0
  1  2  2  0      
  2  3  1  0      
  2 17  1  0      
  3  4  1  0      
  3 28  1  0      
  4  5  1  0      
  4 16  2  0      
  5  6  2  0      
  5 29  1  0      
  6  7  1  0      
  6 30  1  0      
  7  8  1  0      
  7  9  2  0      
  9 10  1  0      
  9 16  1  0      
 10 11  2  0      
 15 10  1  0      
 11 12  1  0      
 13 12  2  0      
 12 31  1  0      
 13 14  1  0      
 13 32  1  0      
 14 15  2  0      
 14 33  1  0      
 15 34  1  0      
 16 35  1  0      
 17 18  1  0      
 17 26  2  0      
 18 19  2  0      
 18 36  1  0      
 19 20  1  0      
 19 37  1  0      
 20 21  1  0      
 20 25  2  0      
 21 22  2  0      
 21 23  1  0      
 21 24  2  0      
 23 38  1  0      
 23 39  1  0      
 23 40  1  0      
 25 26  1  0      
 25 41  1  0      
 26 27  1  0      
M  END
