
  Chem3D Core 14.010291510353D

  0  0  0     0  0              0 V3000
M  V30 BEGIN CTAB
M  V30 COUNTS 104 112 0 0 0
M  V30 BEGIN ATOM
M  V30 1 C 5.845965 -3.081896 -4.211725 0
M  V30 2 C -6.221476 -4.925376 1.516435 0
M  V30 3 C -5.721816 0.945574 3.473375 0
M  V30 4 C -3.554016 -4.882685 -2.030235 0
M  V30 5 C -0.401467 -2.442125 3.932135 0
M  V30 6 C 2.417735 2.840925 -3.206665 0
M  V30 7 C 6.175955 -2.555475 -2.807326 0
M  V30 8 C -6.278625 -3.719255 2.416655 0
M  V30 9 C -5.023016 4.851085 0.259415 0
M  V30 10 C -5.654655 4.798875 -0.926989 0
M  V30 11 C -4.465435 3.753015 0.800135 0
M  V30 12 C -5.740876 3.640715 -1.602055 0
M  V30 13 C 1.648815 -3.609535 -2.353085 0
M  V30 14 C 2.916874 -3.915785 -1.516045 0
M  V30 15 C 5.751164 -0.759081 -1.024480 0
M  V30 16 C -1.886423 -0.497185 -1.252934 0
M  V30 17 C -3.333915 0.970354 1.629155 0
M  V30 18 C -1.416710 -3.058845 -1.890965 0
M  V30 19 C 3.399625 -0.159539 -0.410825 0
M  V30 20 C 4.322425 -2.496695 0.002124 0
M  V30 21 C -5.741065 -1.444851 3.280125 0
M  V30 22 C 4.646394 -0.986168 0.018028 0
M  V30 23 C 5.281594 -1.383928 -2.351035 0
M  V30 24 C -5.539905 -2.599625 2.319045 0
M  V30 25 C -4.551605 2.593405 0.132211 0
M  V30 26 C 0.931114 -2.311295 -1.989626 0
M  V30 27 C -4.490105 -2.355505 1.255725 0
M  V30 28 C -0.397340 -2.196215 -1.810656 0
M  V30 29 C -2.911335 -1.372309 -1.291965 0
M  V30 30 C -4.319486 -0.888553 -0.956982 0
M  V30 31 C -4.114415 1.345484 0.390290 0
M  V30 32 C -5.180066 2.561225 -1.047458 0
M  V30 33 C -0.648197 -0.924695 -1.500745 0
M  V30 34 C -3.840015 -0.215773 2.475425 0
M  V30 35 C -2.687486 -2.667075 -1.644075 0
M  V30 36 C -3.344976 -1.553407 1.887265 0
M  V30 37 C -4.498385 0.592675 -0.668179 0
M  V30 38 C 1.435115 -1.065398 -1.778125 0
M  V30 39 C 3.787395 -1.753512 -2.235585 0
M  V30 40 C -2.528896 -2.364376 2.899565 0
M  V30 41 C 2.910615 0.553015 -2.873865 0
M  V30 42 C 2.887114 -0.568315 -1.829936 0
M  V30 43 N -5.117645 1.370415 -1.465295 0
M  V30 44 N 0.453595 -0.305216 -1.497915 0
M  V30 45 N -5.286145 -0.195734 2.681635 0
M  V30 46 N 3.454405 -2.643165 -1.134632 0
M  V30 47 O -2.904075 -3.362466 3.472615 0
M  V30 48 O 3.182645 0.390135 -4.042755 0
M  V30 49 O -3.760076 -3.524925 -1.719645 0
M  V30 50 O 2.544515 1.747825 -2.328865 0
M  V30 51 H -4.835585 -1.005211 -1.949105 0
M  V30 52 H -2.600746 -1.364813 1.082965 0
M  V30 53 H 3.455644 -2.139745 -3.223285 0
M  V30 54 O -1.292324 -1.803986 3.048795 0
M  V30 55 C -5.173945 -1.715435 0.029503 0
M  V30 56 H 6.596485 -3.838876 -4.537055 0
M  V30 57 H 4.851755 -3.580295 -4.247815 0
M  V30 58 H 5.849904 -2.259705 -4.963115 0
M  V30 59 H -7.238655 -5.143705 1.118555 0
M  V30 60 H -5.551835 -4.812045 0.638603 0
M  V30 61 H -5.876335 -5.811995 2.095305 0
M  V30 62 H -6.830525 0.953675 3.581564 0
M  V30 63 H -5.464596 1.909345 2.982355 0
M  V30 64 H -5.274685 0.937215 4.493565 0
M  V30 65 H -4.547606 -5.384806 -2.019835 0
M  V30 66 H -3.125625 -4.987425 -3.051775 0
M  V30 67 H -2.918195 -5.365235 -1.254612 0
M  V30 68 H 0.550655 -1.865793 3.933295 0
M  V30 69 H -0.820919 -2.444305 4.963115 0
M  V30 70 H -0.191837 -3.477795 3.582224 0
M  V30 71 H 2.095225 3.723224 -2.609925 0
M  V30 72 H 3.398874 3.068525 -3.680585 0
M  V30 73 H 1.641405 2.625805 -3.974775 0
M  V30 74 H 7.238655 -2.210235 -2.815036 0
M  V30 75 H 6.118395 -3.401325 -2.085415 0
M  V30 76 H -7.012066 -3.784835 3.239264 0
M  V30 77 H -4.961306 5.811995 0.798245 0
M  V30 78 H -6.104345 5.712555 -1.350685 0
M  V30 79 H -3.955635 3.830884 1.772185 0
M  V30 80 H -6.252546 3.579145 -2.575425 0
M  V30 81 H 0.966315 -4.483185 -2.246755 0
M  V30 82 H 1.882284 -3.572935 -3.442355 0
M  V30 83 H 2.619974 -4.476745 -0.596822 0
M  V30 84 H 3.659255 -4.532215 -2.071925 0
M  V30 85 H 6.707365 -1.213351 -0.676924 0
M  V30 86 H 5.943144 0.333885 -1.137275 0
M  V30 87 H -2.021273 0.565745 -1.009957 0
M  V30 88 H -2.269575 0.817255 1.339145 0
M  V30 89 H -3.271045 1.851915 2.305735 0
M  V30 90 H -1.187237 -4.097065 -2.165665 0
M  V30 91 H 2.598154 -0.317449 0.348977 0
M  V30 92 H 3.665254 0.919145 -0.349309 0
M  V30 93 H 5.230045 -3.134676 -0.063623 0
M  V30 94 H 3.778735 -2.781285 0.934625 0
M  V30 95 H -6.827115 -1.385319 3.527475 0
M  V30 96 H -5.190125 -1.653549 4.226875 0
M  V30 97 H 5.001915 -0.670221 1.028785 0
M  V30 98 H 5.391114 -0.600237 -3.142245 0
M  V30 99 H -4.034895 -3.323265 0.937445 0
M  V30 100 H -3.351686 -0.119120 3.479404 0
M  V30 101 H -5.536896 1.063115 -2.373385 0
M  V30 102 H 0.540805 0.715035 -1.282161 0
M  V30 103 H -6.026815 -1.073019 0.350266 0
M  V30 104 H -5.700945 -2.535655 -0.515158 0
M  V30 END ATOM
M  V30 BEGIN BOND
M  V30 1 1 1 7
M  V30 2 1 1 56
M  V30 3 1 1 57
M  V30 4 1 1 58
M  V30 5 1 2 8
M  V30 6 1 2 59
M  V30 7 1 2 60
M  V30 8 1 2 61
M  V30 9 1 3 45
M  V30 10 1 3 62
M  V30 11 1 3 63
M  V30 12 1 3 64
M  V30 13 1 4 49
M  V30 14 1 4 65
M  V30 15 1 4 66
M  V30 16 1 4 67
M  V30 17 1 5 54
M  V30 18 1 5 68
M  V30 19 1 5 69
M  V30 20 1 5 70
M  V30 21 1 6 50
M  V30 22 1 6 71
M  V30 23 1 6 72
M  V30 24 1 6 73
M  V30 25 1 23 7
M  V30 26 1 7 74
M  V30 27 1 7 75
M  V30 28 2 8 24
M  V30 29 1 8 76
M  V30 30 2 9 10
M  V30 31 1 11 9
M  V30 32 1 9 77
M  V30 33 1 10 12
M  V30 34 1 10 78
M  V30 35 2 25 11
M  V30 36 1 11 79
M  V30 37 2 12 32
M  V30 38 1 12 80
M  V30 39 1 13 14
M  V30 40 1 13 26
M  V30 41 1 13 81
M  V30 42 1 13 82
M  V30 43 1 14 46
M  V30 44 1 14 83
M  V30 45 1 14 84
M  V30 46 1 15 22
M  V30 47 1 15 23
M  V30 48 1 15 85
M  V30 49 1 15 86
M  V30 50 1 16 29
M  V30 51 2 16 33
M  V30 52 1 16 87
M  V30 53 1 31 17
M  V30 54 1 17 34
M  V30 55 1 17 88
M  V30 56 1 17 89
M  V30 57 2 18 28
M  V30 58 1 18 35
M  V30 59 1 18 90
M  V30 60 1 19 22
M  V30 61 1 19 42
M  V30 62 1 19 91
M  V30 63 1 19 92
M  V30 64 1 22 20
M  V30 65 1 20 46
M  V30 66 1 20 93
M  V30 67 1 20 94
M  V30 68 1 21 24
M  V30 69 1 45 21
M  V30 70 1 21 95
M  V30 71 1 21 96
M  V30 72 1 22 97
M  V30 73 1 23 39
M  V30 74 1 23 98
M  V30 75 1 27 24
M  V30 76 1 25 31
M  V30 77 1 25 32
M  V30 78 1 26 28
M  V30 79 2 26 38
M  V30 80 1 36 27
M  V30 81 1 55 27
M  V30 82 1 27 99
M  V30 83 1 28 33
M  V30 84 1 29 30
M  V30 85 2 29 35
M  V30 86 1 37 30
M  V30 87 1 30 51
M  V30 88 1 30 55
M  V30 89 2 31 37
M  V30 90 1 32 43
M  V30 91 1 33 44
M  V30 92 1 34 36
M  V30 93 1 34 45
M  V30 94 1 34 100
M  V30 95 1 35 49
M  V30 96 1 36 40
M  V30 97 1 36 52
M  V30 98 1 43 37
M  V30 99 1 38 42
M  V30 100 1 38 44
M  V30 101 1 39 42
M  V30 102 1 39 46
M  V30 103 1 39 53
M  V30 104 2 40 47
M  V30 105 1 40 54
M  V30 106 1 42 41
M  V30 107 2 41 48
M  V30 108 1 41 50
M  V30 109 1 43 101
M  V30 110 1 44 102
M  V30 111 1 55 103
M  V30 112 1 55 104
M  V30 END BOND
M  V30 END CTAB
M  END
