
  Chem3D Core 15.003241614373D

 69 73  0  0  0  0  0  0  0  0999 V2000
    6.0959    0.2461    3.4744 O   0  0  0  0  0  0  0  0  0  0  0  0
    4.9663    0.6245    3.6702 C   0  0  0  0  0  0  0  0  0  0  0  0
    4.4767    0.8581    4.9214 O   0  0  0  0  0  0  0  0  0  0  0  0
    5.2988    0.5575    6.0181 C   0  0  0  0  0  0  0  0  0  0  0  0
    4.5151    0.8183    7.3012 C   0  0  0  0  0  0  0  0  0  0  0  0
    4.1600    0.7884    2.5836 N   0  0  0  0  0  0  0  0  0  0  0  0
    2.7463    1.1749    2.6707 C   0  0  0  0  0  0  0  0  0  0  0  0
    2.5874    1.8131    3.5743 H   0  0  0  0  0  0  0  0  0  0  0  0
    2.3602    2.0194    1.4426 C   0  0  0  0  0  0  0  0  0  0  0  0
    0.8686    2.3861    1.4921 C   0  0  0  0  0  0  0  0  0  0  0  0
    0.7048    2.9658    2.4343 H   0  0  0  0  0  0  0  0  0  0  0  0
    0.4131    3.2643    0.3189 C   0  0  0  0  0  0  0  0  0  0  0  0
   -0.9877    3.8101    0.6259 C   0  0  0  0  0  0  0  0  0  0  0  0
   -0.8861    4.7946    1.1482 H   0  0  0  0  0  0  0  0  0  0  0  0
   -1.8498    2.8854    1.4930 C   0  0  0  0  0  0  0  0  0  0  0  0
   -1.4972    1.3900    1.3471 C   0  0  0  0  0  0  0  0  0  0  0  0
   -2.0492    0.8563    2.1599 H   0  0  0  0  0  0  0  0  0  0  0  0
   -1.9712    0.8172    0.0246 C   0  0  0  0  0  0  0  0  0  0  0  0
   -2.7130   -0.2987   -0.0843 C   0  0  0  0  0  0  0  0  0  0  0  0
   -3.1322   -0.8416   -1.2447 C   0  0  0  0  0  0  0  0  0  0  0  0
   -2.8442   -0.3072   -2.3558 N   0  0  0  0  0  0  0  0  0  0  0  0
   -3.2389   -0.8242   -3.4420 C   0  0  0  0  0  0  0  0  0  0  0  0
   -3.9765   -1.9468   -3.5898 C   0  0  0  0  0  0  0  0  0  0  0  0
   -4.3673   -2.4513   -4.7916 C   0  0  0  0  0  0  0  0  0  0  0  0
   -4.0581   -1.8634   -5.9698 C   0  0  0  0  0  0  0  0  0  0  0  0
   -4.4388   -2.3556   -7.1597 C   0  0  0  0  0  0  0  0  0  0  0  0
   -5.1603   -3.4807   -7.2265 C   0  0  0  0  0  0  0  0  0  0  0  0
   -5.4913   -4.0984   -6.0861 C   0  0  0  0  0  0  0  0  0  0  0  0
   -6.2048   -5.2133   -6.1250 F   0  0  0  0  0  0  0  0  0  0  0  0
   -5.0977   -3.5839   -4.9089 C   0  0  0  0  0  0  0  0  0  0  0  0
   -4.2793   -2.5099   -2.4007 C   0  0  0  0  0  0  0  0  0  0  0  0
   -3.8656   -1.9678   -1.2447 C   0  0  0  0  0  0  0  0  0  0  0  0
    0.0137    1.1056    1.5169 C   0  0  0  0  0  0  0  0  0  0  0  0
    0.3358    0.4769    0.6483 H   0  0  0  0  0  0  0  0  0  0  0  0
    0.3576    0.2891    2.7741 C   0  0  0  0  0  0  0  0  0  0  0  0
    1.8525   -0.0706    2.7853 C   0  0  0  0  0  0  0  0  0  0  0  0
   -1.7155    3.1484    2.5715 H   0  0  0  0  0  0  0  0  0  0  0  0
   -3.2611    3.2418    1.0230 C   0  0  0  0  0  0  0  0  0  0  0  0
   -3.9160    2.3394    0.9825 H   0  0  0  0  0  0  0  0  0  0  0  0
   -3.9401    4.2768    1.9216 C   0  0  0  0  0  0  0  0  0  0  0  0
   -3.1426    3.7629   -0.2702 O   0  0  0  0  0  0  0  0  0  0  0  0
   -1.8605    4.0902   -0.5786 C   0  0  0  0  0  0  0  0  0  0  0  0
   -1.4867    4.5409   -1.6385 O   0  0  0  0  0  0  0  0  0  0  0  0
    5.5995   -0.5157    5.9734 H   0  0  0  0  0  0  0  0  0  0  0  0
    6.2048    1.2070    5.9892 H   0  0  0  0  0  0  0  0  0  0  0  0
    5.1340    0.5917    8.1997 H   0  0  0  0  0  0  0  0  0  0  0  0
    4.1965    1.8840    7.3677 H   0  0  0  0  0  0  0  0  0  0  0  0
    3.6003    0.1836    7.3484 H   0  0  0  0  0  0  0  0  0  0  0  0
    4.5656    0.5218    1.6881 H   0  0  0  0  0  0  0  0  0  0  0  0
    2.9806    2.9466    1.4182 H   0  0  0  0  0  0  0  0  0  0  0  0
    2.5796    1.4523    0.5082 H   0  0  0  0  0  0  0  0  0  0  0  0
    1.1218    4.1098    0.1563 H   0  0  0  0  0  0  0  0  0  0  0  0
    0.4138    2.6607   -0.6173 H   0  0  0  0  0  0  0  0  0  0  0  0
   -1.6447    1.3606   -0.8758 H   0  0  0  0  0  0  0  0  0  0  0  0
   -2.9881   -0.7988    0.8606 H   0  0  0  0  0  0  0  0  0  0  0  0
   -2.8902   -0.2211   -4.2939 H   0  0  0  0  0  0  0  0  0  0  0  0
   -3.4716   -0.9359   -6.0414 H   0  0  0  0  0  0  0  0  0  0  0  0
   -4.1599   -1.8360   -8.0926 H   0  0  0  0  0  0  0  0  0  0  0  0
   -5.4758   -3.8903   -8.1997 H   0  0  0  0  0  0  0  0  0  0  0  0
   -5.4250   -4.1745   -4.0414 H   0  0  0  0  0  0  0  0  0  0  0  0
   -4.8721   -3.4295   -2.2936 H   0  0  0  0  0  0  0  0  0  0  0  0
   -4.1382   -2.4656   -0.2977 H   0  0  0  0  0  0  0  0  0  0  0  0
    0.0988    0.8761    3.6864 H   0  0  0  0  0  0  0  0  0  0  0  0
   -0.2455   -0.6501    2.7987 H   0  0  0  0  0  0  0  0  0  0  0  0
    2.0977   -0.6267    3.7215 H   0  0  0  0  0  0  0  0  0  0  0  0
    2.0740   -0.7561    1.9329 H   0  0  0  0  0  0  0  0  0  0  0  0
   -3.3411    5.2133    1.9901 H   0  0  0  0  0  0  0  0  0  0  0  0
   -4.9483    4.5463    1.5311 H   0  0  0  0  0  0  0  0  0  0  0  0
   -4.0766    3.8812    2.9542 H   0  0  0  0  0  0  0  0  0  0  0  0
  1  2  2  0      
  2  3  1  0      
  2  6  1  0      
  3  4  1  0      
  4  5  1  0      
  4 44  1  0      
  4 45  1  0      
  5 46  1  0      
  5 47  1  0      
  5 48  1  0      
  6  7  1  0      
  6 49  1  0      
  7  8  1  0      
  7  9  1  0      
  7 36  1  0      
  9 10  1  0      
  9 50  1  0      
  9 51  1  0      
 10 11  1  0      
 10 12  1  0      
 10 33  1  0      
 12 13  1  0      
 12 52  1  0      
 12 53  1  0      
 13 14  1  0      
 13 15  1  0      
 13 42  1  0      
 15 16  1  0      
 15 37  1  0      
 15 38  1  0      
 16 17  1  0      
 16 18  1  0      
 16 33  1  0      
 18 19  2  0      
 18 54  1  0      
 19 20  1  0      
 19 55  1  0      
 20 21  2  0      
 32 20  1  0      
 21 22  1  0      
 23 22  2  0      
 22 56  1  0      
 23 24  1  0      
 23 31  1  0      
 24 25  1  0      
 24 30  2  0      
 25 26  2  0      
 25 57  1  0      
 26 27  1  0      
 26 58  1  0      
 27 28  2  0      
 27 59  1  0      
 28 29  1  0      
 28 30  1  0      
 30 60  1  0      
 31 32  2  0      
 31 61  1  0      
 32 62  1  0      
 33 34  1  0      
 33 35  1  0      
 35 36  1  0      
 35 63  1  0      
 35 64  1  0      
 36 65  1  0      
 36 66  1  0      
 38 39  1  0      
 38 40  1  0      
 38 41  1  0      
 40 67  1  0      
 40 68  1  0      
 40 69  1  0      
 41 42  1  0      
 42 43  2  0      
M  END
