
  Chem3D Core 15.008171513153D

 39 41  0  0  0  0  0  0  0  0999 V2000
    2.3121   -1.9442    2.0389 C   0  0  0  0  0  0  0  0  0  0  0  0
    2.1757   -0.9403    0.8769 C   0  0  0  0  0  0  0  0  0  0  0  0
    3.0382   -0.2358    0.9864 H   0  0  0  0  0  0  0  0  0  0  0  0
    2.3548   -1.6275   -0.4685 C   0  0  0  0  0  0  0  0  0  0  0  0
    1.9433   -2.8231   -0.5636 N   0  0  0  0  0  0  0  0  0  0  0  0
    2.0723   -3.4105   -1.6778 C   0  0  0  0  0  0  0  0  0  0  0  0
    2.5747   -2.9407   -2.7405 N   0  0  0  0  0  0  0  0  0  0  0  0
    2.9911   -1.7482   -2.6718 C   0  0  0  0  0  0  0  0  0  0  0  0
    2.9050   -1.0291   -1.5412 C   0  0  0  0  0  0  0  0  0  0  0  0
    3.3183    0.2259   -1.5003 F   0  0  0  0  0  0  0  0  0  0  0  0
    0.8777   -0.1018    0.9122 C   0  0  0  0  0  0  0  0  0  0  0  0
    0.9400    0.8212   -0.1582 O   0  0  0  0  0  0  0  0  0  0  0  0
    0.7737    0.7824    2.1761 C   0  0  0  0  0  0  0  0  0  0  0  0
    1.8063    1.8358    2.2654 N   0  0  0  0  0  0  0  0  0  0  0  0
    2.8369    1.6801    2.9887 C   0  0  0  0  0  0  0  0  0  0  0  0
    3.5641    2.7100    2.9021 N   0  0  0  0  0  0  0  0  0  0  0  0
    2.9065    3.4499    2.1118 C   0  0  0  0  0  0  0  0  0  0  0  0
    1.8198    2.9376    1.7090 N   0  0  0  0  0  0  0  0  0  0  0  0
   -0.3453   -1.0034    0.7043 C   0  0  0  0  0  0  0  0  0  0  0  0
   -1.0134   -1.5285    1.7505 C   0  0  0  0  0  0  0  0  0  0  0  0
   -2.0807   -2.3258    1.5920 C   0  0  0  0  0  0  0  0  0  0  0  0
   -2.5155   -2.6311    0.3623 C   0  0  0  0  0  0  0  0  0  0  0  0
   -3.5641   -3.4202    0.1918 F   0  0  0  0  0  0  0  0  0  0  0  0
   -1.8574   -2.1276   -0.6912 C   0  0  0  0  0  0  0  0  0  0  0  0
   -0.7907   -1.3276   -0.5286 C   0  0  0  0  0  0  0  0  0  0  0  0
   -0.1913   -0.8868   -1.6225 F   0  0  0  0  0  0  0  0  0  0  0  0
    1.4858   -2.6885    2.0592 H   0  0  0  0  0  0  0  0  0  0  0  0
    3.2695   -2.5095    1.9621 H   0  0  0  0  0  0  0  0  0  0  0  0
    2.3256   -1.4457    3.0321 H   0  0  0  0  0  0  0  0  0  0  0  0
    1.7012   -4.4485   -1.7288 H   0  0  0  0  0  0  0  0  0  0  0  0
    3.4227   -1.3121   -3.5872 H   0  0  0  0  0  0  0  0  0  0  0  0
    1.1137    0.3535   -0.9766 H   0  0  0  0  0  0  0  0  0  0  0  0
   -0.2195    1.2930    2.1674 H   0  0  0  0  0  0  0  0  0  0  0  0
    0.7843    0.1778    3.1089 H   0  0  0  0  0  0  0  0  0  0  0  0
    3.0542    0.7893    3.5872 H   0  0  0  0  0  0  0  0  0  0  0  0
    3.2457    4.4485    1.8061 H   0  0  0  0  0  0  0  0  0  0  0  0
   -0.6962   -1.3268    2.7846 H   0  0  0  0  0  0  0  0  0  0  0  0
   -2.6003   -2.7380    2.4732 H   0  0  0  0  0  0  0  0  0  0  0  0
   -2.1985   -2.3806   -1.7091 H   0  0  0  0  0  0  0  0  0  0  0  0
  1  2  1  0      
  1 27  1  0      
  1 28  1  0      
  1 29  1  0      
  2  3  1  0      
  2  4  1  0      
  2 11  1  0      
  4  5  1  0      
  9  4  2  0      
  5  6  2  0      
  6  7  1  0      
  6 30  1  0      
  8  7  2  0      
  8  9  1  0      
  8 31  1  0      
  9 10  1  0      
 11 12  1  0      
 11 13  1  0      
 11 19  1  0      
 12 32  1  0      
 13 14  1  0      
 13 33  1  0      
 13 34  1  0      
 15 14  1  0      
 14 18  1  0      
 15 16  2  0      
 15 35  1  0      
 17 16  1  0      
 18 17  2  0      
 17 36  1  0      
 19 20  1  0      
 19 25  2  0      
 20 21  2  0      
 20 37  1  0      
 21 22  1  0      
 21 38  1  0      
 22 23  1  0      
 22 24  2  0      
 24 25  1  0      
 24 39  1  0      
 25 26  1  0      
M  END
