
  Chem3D Core 15.008171512483D

 55 59  0  0  0  0  0  0  0  0999 V2000
   -5.3259   -0.6235    0.9221 O   0  0  0  0  0  0  0  0  0  0  0  0
   -4.1117   -0.5598    0.9103 C   0  0  0  0  0  0  0  0  0  0  0  0
   -3.3783   -1.6958    0.9059 C   0  0  0  0  0  0  0  0  0  0  0  0
   -3.6502   -2.9987    0.7881 C   0  0  0  0  0  0  0  0  0  0  0  0
   -2.5997   -3.6517    0.7732 O   0  0  0  0  0  0  0  0  0  0  0  0
   -1.6306   -2.8936    0.9139 C   0  0  0  0  0  0  0  0  0  0  0  0
   -2.0604   -1.6436    1.0344 C   0  0  0  0  0  0  0  0  0  0  0  0
   -1.2828   -0.4184    1.2985 C   0  0  0  0  0  0  0  0  0  0  0  0
    0.1616   -0.7753    0.9410 C   0  0  0  0  0  0  0  0  0  0  0  0
    1.1361    0.4159    0.9593 C   0  0  0  0  0  0  0  0  0  0  0  0
    0.7686    1.3855    0.0067 O   0  0  0  0  0  0  0  0  0  0  0  0
    1.2342    2.6611    0.1300 C   0  0  0  0  0  0  0  0  0  0  0  0
    0.7626    3.4971   -1.0439 C   0  0  0  0  0  0  0  0  0  0  0  0
    1.9164    3.0765    1.0390 O   0  0  0  0  0  0  0  0  0  0  0  0
    2.6168    0.0712    0.7647 C   0  0  0  0  0  0  0  0  0  0  0  0
    2.9114   -1.2917    1.3867 C   0  0  0  0  0  0  0  0  0  0  0  0
    2.7087   -1.2844    2.9138 C   0  0  0  0  0  0  0  0  0  0  0  0
    0.5729   -2.0700    0.8257 C   0  0  0  0  0  0  0  0  0  0  0  0
    2.0605   -2.3210    0.6214 C   0  0  0  0  0  0  0  0  0  0  0  0
    2.2047   -2.1774   -0.4817 H   0  0  0  0  0  0  0  0  0  0  0  0
    2.7813   -3.6465    0.9331 C   0  0  0  0  0  0  0  0  0  0  0  0
    4.2776   -3.2872    0.8645 C   0  0  0  0  0  0  0  0  0  0  0  0
    4.3252   -1.7963    1.1369 C   0  0  0  0  0  0  0  0  0  0  0  0
    5.3259   -1.1205    1.1556 O   0  0  0  0  0  0  0  0  0  0  0  0
   -0.2934   -3.1347    0.8443 C   0  0  0  0  0  0  0  0  0  0  0  0
    0.0739   -4.2884    0.7522 O   0  0  0  0  0  0  0  0  0  0  0  0
   -1.3533   -0.1537    2.8211 C   0  0  0  0  0  0  0  0  0  0  0  0
   -2.0843    0.6614    0.5423 C   0  0  0  0  0  0  0  0  0  0  0  0
   -1.9646    0.5299   -0.9825 C   0  0  0  0  0  0  0  0  0  0  0  0
   -2.3090    1.7610   -1.5710 O   0  0  0  0  0  0  0  0  0  0  0  0
   -2.2079    1.7349   -2.9779 C   0  0  0  0  0  0  0  0  0  0  0  0
   -3.4643    0.6573    0.8743 O   0  0  0  0  0  0  0  0  0  0  0  0
   -4.5933   -3.5396    0.6557 H   0  0  0  0  0  0  0  0  0  0  0  0
    1.0317    0.8665    1.9739 H   0  0  0  0  0  0  0  0  0  0  0  0
   -0.3213    3.7258   -0.9341 H   0  0  0  0  0  0  0  0  0  0  0  0
    1.3172    4.4613   -1.0872 H   0  0  0  0  0  0  0  0  0  0  0  0
    0.9263    2.9634   -2.0074 H   0  0  0  0  0  0  0  0  0  0  0  0
    2.8616    0.0362   -0.3232 H   0  0  0  0  0  0  0  0  0  0  0  0
    3.2805    0.8477    1.2090 H   0  0  0  0  0  0  0  0  0  0  0  0
    3.3083   -0.4729    3.3854 H   0  0  0  0  0  0  0  0  0  0  0  0
    1.6484   -1.1252    3.2050 H   0  0  0  0  0  0  0  0  0  0  0  0
    3.0263   -2.2386    3.3894 H   0  0  0  0  0  0  0  0  0  0  0  0
    2.5636   -4.4613    0.2046 H   0  0  0  0  0  0  0  0  0  0  0  0
    2.5170   -3.9999    1.9570 H   0  0  0  0  0  0  0  0  0  0  0  0
    4.8839   -3.8502    1.6095 H   0  0  0  0  0  0  0  0  0  0  0  0
    4.6875   -3.4611   -0.1579 H   0  0  0  0  0  0  0  0  0  0  0  0
   -2.3997   -0.0784    3.1924 H   0  0  0  0  0  0  0  0  0  0  0  0
   -0.8680   -0.9720    3.4008 H   0  0  0  0  0  0  0  0  0  0  0  0
   -0.8570    0.8012    3.1015 H   0  0  0  0  0  0  0  0  0  0  0  0
   -1.6952    1.6602    0.8540 H   0  0  0  0  0  0  0  0  0  0  0  0
   -0.9313    0.2613   -1.2900 H   0  0  0  0  0  0  0  0  0  0  0  0
   -2.6369   -0.2659   -1.3745 H   0  0  0  0  0  0  0  0  0  0  0  0
   -2.4961    2.7394   -3.3606 H   0  0  0  0  0  0  0  0  0  0  0  0
   -1.1594    1.5239   -3.2850 H   0  0  0  0  0  0  0  0  0  0  0  0
   -2.9026    0.9757   -3.4008 H   0  0  0  0  0  0  0  0  0  0  0  0
  1  2  2  0      
  2  3  1  0      
  2 32  1  0      
  3  4  2  0      
  3  7  1  0      
  4  5  1  0      
  4 33  1  0      
  5  6  1  0      
  6  7  2  0      
  6 25  1  0      
  7  8  1  0      
  8  9  1  0      
  8 27  1  0      
  8 28  1  0      
  9 10  1  0      
  9 18  2  0      
 10 11  1  0      
 10 15  1  0      
 10 34  1  0      
 11 12  1  0      
 12 13  1  0      
 12 14  2  0      
 13 35  1  0      
 13 36  1  0      
 13 37  1  0      
 15 16  1  0      
 15 38  1  0      
 15 39  1  0      
 16 17  1  0      
 16 19  1  0      
 16 23  1  0      
 17 40  1  0      
 17 41  1  0      
 17 42  1  0      
 18 19  1  0      
 18 25  1  0      
 19 20  1  0      
 19 21  1  0      
 21 22  1  0      
 21 43  1  0      
 21 44  1  0      
 22 23  1  0      
 22 45  1  0      
 22 46  1  0      
 23 24  2  0      
 25 26  2  0      
 27 47  1  0      
 27 48  1  0      
 27 49  1  0      
 28 29  1  0      
 28 32  1  0      
 28 50  1  0      
 29 30  1  0      
 29 51  1  0      
 29 52  1  0      
 30 31  1  0      
 31 53  1  0      
 31 54  1  0      
 31 55  1  0      
M  END
