
  Chem3D Core 15.008171512563D

 54 57  0  0  0  0  0  0  0  0999 V2000
   -0.7016   -4.8595   -3.2514 O   0  0  0  0  0  0  0  0  0  0  0  0
   -0.5681   -3.8648   -2.5791 C   0  0  0  0  0  0  0  0  0  0  0  0
   -1.6272   -3.3755   -1.8628 N   0  0  0  0  0  0  0  0  0  0  0  0
   -2.9557   -3.9819   -1.8453 C   0  0  0  0  0  0  0  0  0  0  0  0
   -3.9224   -3.3225   -2.8434 C   0  0  0  0  0  0  0  0  0  0  0  0
   -3.5988   -1.9753   -3.2116 O   0  0  0  0  0  0  0  0  0  0  0  0
   -3.6357   -1.1242   -2.1441 C   0  0  0  0  0  0  0  0  0  0  0  0
   -4.6131   -0.1257   -2.1855 C   0  0  0  0  0  0  0  0  0  0  0  0
   -4.7053    0.8089   -1.1572 C   0  0  0  0  0  0  0  0  0  0  0  0
   -3.8064    0.7566   -0.0968 C   0  0  0  0  0  0  0  0  0  0  0  0
   -3.8926    1.6458    0.8979 C   0  0  0  0  0  0  0  0  0  0  0  0
   -3.0167    2.7240    0.9697 C   0  0  0  0  0  0  0  0  0  0  0  0
   -3.1359    3.6296    2.0189 C   0  0  0  0  0  0  0  0  0  0  0  0
   -4.1324    3.4173    2.9581 C   0  0  0  0  0  0  0  0  0  0  0  0
   -4.2385    4.2430    3.9119 N   0  0  0  0  0  0  0  0  0  0  0  0
   -4.9972    2.3804    2.9149 N   0  0  0  0  0  0  0  0  0  0  0  0
   -4.8570    1.5179    1.8847 C   0  0  0  0  0  0  0  0  0  0  0  0
   -2.8133   -0.2260   -0.0721 C   0  0  0  0  0  0  0  0  0  0  0  0
   -2.7086   -1.1862   -1.0977 C   0  0  0  0  0  0  0  0  0  0  0  0
   -1.5674   -2.1768   -1.0179 C   0  0  0  0  0  0  0  0  0  0  0  0
    0.6264   -3.2353   -2.5340 C   0  0  0  0  0  0  0  0  0  0  0  0
    1.3961   -3.1163   -3.6911 C   0  0  0  0  0  0  0  0  0  0  0  0
    2.6295   -2.4664   -3.6445 C   0  0  0  0  0  0  0  0  0  0  0  0
    3.0930   -1.9356   -2.4408 C   0  0  0  0  0  0  0  0  0  0  0  0
    4.6757   -1.1016   -2.3810 S   0  0  0  0  0  0  0  0  0  0  0  0
    5.2769   -1.1091   -3.7005 O   0  0  0  0  0  0  0  0  0  0  0  0
    4.4391    0.5837   -1.8459 C   0  0  0  0  0  0  0  0  0  0  0  0
    5.5486   -1.7880   -1.4485 O   0  0  0  0  0  0  0  0  0  0  0  0
    2.3233   -2.0545   -1.2837 C   0  0  0  0  0  0  0  0  0  0  0  0
    2.7620   -1.5521   -0.1446 F   0  0  0  0  0  0  0  0  0  0  0  0
    1.0900   -2.7045   -1.3303 C   0  0  0  0  0  0  0  0  0  0  0  0
    0.2638   -2.8322   -0.0884 C   0  0  0  0  0  0  0  0  0  0  0  0
   -2.8580   -5.0600   -2.1041 H   0  0  0  0  0  0  0  0  0  0  0  0
   -3.3769   -3.8395   -0.8250 H   0  0  0  0  0  0  0  0  0  0  0  0
   -3.9322   -3.9388   -3.7702 H   0  0  0  0  0  0  0  0  0  0  0  0
   -4.9084   -3.2726   -2.3296 H   0  0  0  0  0  0  0  0  0  0  0  0
   -5.3120   -0.0780   -3.0336 H   0  0  0  0  0  0  0  0  0  0  0  0
   -5.4849    1.5845   -1.1833 H   0  0  0  0  0  0  0  0  0  0  0  0
   -2.2379    2.8591    0.2047 H   0  0  0  0  0  0  0  0  0  0  0  0
   -2.4570    4.4913    2.1008 H   0  0  0  0  0  0  0  0  0  0  0  0
   -4.9831    4.1108    4.6404 H   0  0  0  0  0  0  0  0  0  0  0  0
   -3.5819    5.0600    3.9746 H   0  0  0  0  0  0  0  0  0  0  0  0
   -5.5486    0.6645    1.8258 H   0  0  0  0  0  0  0  0  0  0  0  0
   -2.0993   -0.2503    0.7644 H   0  0  0  0  0  0  0  0  0  0  0  0
   -1.5036   -2.5213    0.0385 H   0  0  0  0  0  0  0  0  0  0  0  0
   -0.6869   -1.6138   -1.4008 H   0  0  0  0  0  0  0  0  0  0  0  0
    1.0305   -3.5349   -4.6404 H   0  0  0  0  0  0  0  0  0  0  0  0
    3.2366   -2.3726   -4.5569 H   0  0  0  0  0  0  0  0  0  0  0  0
    5.4227    1.1032   -1.8084 H   0  0  0  0  0  0  0  0  0  0  0  0
    3.9782    0.5895   -0.8328 H   0  0  0  0  0  0  0  0  0  0  0  0
    3.7690    1.1096   -2.5623 H   0  0  0  0  0  0  0  0  0  0  0  0
    0.7957   -2.3512    0.7627 H   0  0  0  0  0  0  0  0  0  0  0  0
   -0.7176   -2.3306   -0.2431 H   0  0  0  0  0  0  0  0  0  0  0  0
    0.0993   -3.9094    0.1383 H   0  0  0  0  0  0  0  0  0  0  0  0
  1  2  2  0      
  2  3  1  0      
  2 21  1  0      
  3  4  1  0      
 20  3  1  0      
  4  5  1  0      
  4 33  1  0      
  4 34  1  0      
  5  6  1  0      
  5 35  1  0      
  5 36  1  0      
  6  7  1  0      
  7  8  1  0      
 19  7  2  0      
  9  8  2  0      
  8 37  1  0      
  9 10  1  0      
  9 38  1  0      
 10 11  1  0      
 10 18  2  0      
 11 12  1  0      
 11 17  2  0      
 12 13  2  0      
 12 39  1  0      
 13 14  1  0      
 13 40  1  0      
 14 15  1  0      
 14 16  2  0      
 15 41  1  0      
 15 42  1  0      
 16 17  1  0      
 17 43  1  0      
 18 19  1  0      
 18 44  1  0      
 19 20  1  0      
 20 45  1  0      
 20 46  1  0      
 21 22  1  0      
 21 31  2  0      
 22 23  2  0      
 22 47  1  0      
 23 24  1  0      
 23 48  1  0      
 24 25  1  0      
 24 29  2  0      
 25 26  2  0      
 25 27  1  0      
 25 28  2  0      
 27 49  1  0      
 27 50  1  0      
 27 51  1  0      
 29 30  1  0      
 29 31  1  0      
 31 32  1  0      
 32 52  1  0      
 32 53  1  0      
 32 54  1  0      
M  END
