
  Chem3D Core 15.003111616023D

 88 88  0  0  0  0  0  0  0  0999 V2000
    7.1256    0.5423   -1.9783 F   0  0  0  0  0  0  0  0  0  0  0  0
    2.2071   -1.3939   -1.4500 O   0  0  0  0  0  0  0  0  0  0  0  0
    4.8712   -0.0525    1.7052 O   0  0  0  0  0  0  0  0  0  0  0  0
    0.6869    0.9161    0.7245 O   0  0  0  0  0  0  0  0  0  0  0  0
   -2.5780   -2.5751    3.4798 O   0  0  0  0  0  0  0  0  0  0  0  0
    6.3004    2.3759   -0.1216 O   0  0  0  0  0  0  0  0  0  0  0  0
    2.0953    2.3191    3.7531 O   0  0  0  0  0  0  0  0  0  0  0  0
   -0.5418   -2.0923    2.7165 O   0  0  0  0  0  0  0  0  0  0  0  0
    4.0846    5.3136    1.1908 O   0  0  0  0  0  0  0  0  0  0  0  0
    0.2495    3.2400    2.8391 O   0  0  0  0  0  0  0  0  0  0  0  0
    4.2713    4.5053   -0.9101 O   0  0  0  0  0  0  0  0  0  0  0  0
   -0.6161   -0.9415   -5.7722 O   0  0  0  0  0  0  0  0  0  0  0  0
   -1.6525    0.4988   -4.3791 O   0  0  0  0  0  0  0  0  0  0  0  0
    1.7743   -1.6436    0.7516 N   0  0  0  0  0  0  0  0  0  0  0  0
   -0.7429   -0.8067    0.4619 N   0  0  0  0  0  0  0  0  0  0  0  0
    3.3658    0.5084    0.1322 N   0  0  0  0  0  0  0  0  0  0  0  0
   -1.9571   -0.3750    2.8705 N   0  0  0  0  0  0  0  0  0  0  0  0
    3.1683   -1.6846    1.2142 C   0  0  0  0  0  0  0  0  0  0  0  0
   -0.1061   -1.3303   -0.7567 C   0  0  0  0  0  0  0  0  0  0  0  0
    1.4035   -1.4767   -0.5562 C   0  0  0  0  0  0  0  0  0  0  0  0
    3.8926   -0.3409    1.0637 C   0  0  0  0  0  0  0  0  0  0  0  0
   -0.2715    0.2987    1.1158 C   0  0  0  0  0  0  0  0  0  0  0  0
   -0.9841    0.6379    2.4295 C   0  0  0  0  0  0  0  0  0  0  0  0
    3.9494   -2.9038    0.6714 C   0  0  0  0  0  0  0  0  0  0  0  0
    3.9830    1.7905   -0.2326 C   0  0  0  0  0  0  0  0  0  0  0  0
   -0.5597   -0.5302   -1.9917 C   0  0  0  0  0  0  0  0  0  0  0  0
    5.4652    1.6432   -0.6088 C   0  0  0  0  0  0  0  0  0  0  0  0
    0.0276    0.9729    3.5509 C   0  0  0  0  0  0  0  0  0  0  0  0
    3.6876    2.9156    0.7822 C   0  0  0  0  0  0  0  0  0  0  0  0
   -1.6449   -1.6989    3.0204 C   0  0  0  0  0  0  0  0  0  0  0  0
    0.7938    2.2799    3.3439 C   0  0  0  0  0  0  0  0  0  0  0  0
   -0.3376   -1.2276   -3.3482 C   0  0  0  0  0  0  0  0  0  0  0  0
    4.0458    4.3102    0.2661 C   0  0  0  0  0  0  0  0  0  0  0  0
    5.3577   -3.0369    1.2784 C   0  0  0  0  0  0  0  0  0  0  0  0
    3.1635   -4.2051    0.9213 C   0  0  0  0  0  0  0  0  0  0  0  0
    5.7942    0.5524   -1.6365 C   0  0  0  0  0  0  0  0  0  0  0  0
   -0.9319   -0.4656   -4.5310 C   0  0  0  0  0  0  0  0  0  0  0  0
   -3.8572   -2.0788    3.8145 C   0  0  0  0  0  0  0  0  0  0  0  0
   -4.7331   -3.2156    4.2973 C   0  0  0  0  0  0  0  0  0  0  0  0
   -4.6322   -3.6629    5.5619 C   0  0  0  0  0  0  0  0  0  0  0  0
   -5.6252   -3.8016    3.4785 C   0  0  0  0  0  0  0  0  0  0  0  0
   -5.4029   -4.6700    6.0012 C   0  0  0  0  0  0  0  0  0  0  0  0
   -6.3994   -4.8090    3.9112 C   0  0  0  0  0  0  0  0  0  0  0  0
    2.7261    1.2305    4.3790 C   0  0  0  0  0  0  0  0  0  0  0  0
   -6.2897   -5.2453    5.1751 C   0  0  0  0  0  0  0  0  0  0  0  0
    3.7634    5.0884    2.5414 C   0  0  0  0  0  0  0  0  0  0  0  0
    0.2251   -2.0552   -5.9531 C   0  0  0  0  0  0  0  0  0  0  0  0
    1.0384   -1.7040    1.4560 H   0  0  0  0  0  0  0  0  0  0  0  0
   -1.4979   -1.3432    0.8900 H   0  0  0  0  0  0  0  0  0  0  0  0
    2.4593    0.2870   -0.2801 H   0  0  0  0  0  0  0  0  0  0  0  0
   -2.8904   -0.0753    3.1463 H   0  0  0  0  0  0  0  0  0  0  0  0
    3.0927   -1.8267    2.3217 H   0  0  0  0  0  0  0  0  0  0  0  0
   -0.4806   -2.3778   -0.8665 H   0  0  0  0  0  0  0  0  0  0  0  0
   -1.5988    1.5417    2.1996 H   0  0  0  0  0  0  0  0  0  0  0  0
    4.0840   -2.7915   -0.4325 H   0  0  0  0  0  0  0  0  0  0  0  0
    3.4771    2.0647   -1.1921 H   0  0  0  0  0  0  0  0  0  0  0  0
   -1.6557   -0.3447   -1.8745 H   0  0  0  0  0  0  0  0  0  0  0  0
   -0.0566    0.4657   -1.9904 H   0  0  0  0  0  0  0  0  0  0  0  0
   -0.5190    1.0840    4.5175 H   0  0  0  0  0  0  0  0  0  0  0  0
    0.6926    0.0886    3.6456 H   0  0  0  0  0  0  0  0  0  0  0  0
    2.5935    2.9179    0.9966 H   0  0  0  0  0  0  0  0  0  0  0  0
    4.2380    2.6723    1.7180 H   0  0  0  0  0  0  0  0  0  0  0  0
    0.7547   -1.3486   -3.5105 H   0  0  0  0  0  0  0  0  0  0  0  0
   -0.8161   -2.2343   -3.3080 H   0  0  0  0  0  0  0  0  0  0  0  0
    5.8591   -3.9697    0.9334 H   0  0  0  0  0  0  0  0  0  0  0  0
    6.0229   -2.1982    0.9745 H   0  0  0  0  0  0  0  0  0  0  0  0
    5.3164   -3.0678    2.3907 H   0  0  0  0  0  0  0  0  0  0  0  0
    3.7075   -5.0908    0.5210 H   0  0  0  0  0  0  0  0  0  0  0  0
    2.1674   -4.1901    0.4242 H   0  0  0  0  0  0  0  0  0  0  0  0
    2.9992   -4.3709    2.0102 H   0  0  0  0  0  0  0  0  0  0  0  0
    5.1968    0.7262   -2.5480 H   0  0  0  0  0  0  0  0  0  0  0  0
    5.5351   -0.4365   -1.2219 H   0  0  0  0  0  0  0  0  0  0  0  0
   -3.7572   -1.3140    4.6188 H   0  0  0  0  0  0  0  0  0  0  0  0
   -4.3075   -1.5919    2.9195 H   0  0  0  0  0  0  0  0  0  0  0  0
   -3.9051   -3.2005    6.2500 H   0  0  0  0  0  0  0  0  0  0  0  0
   -5.7260   -3.4574    2.4359 H   0  0  0  0  0  0  0  0  0  0  0  0
   -5.3069   -5.0259    7.0407 H   0  0  0  0  0  0  0  0  0  0  0  0
   -7.1256   -5.2800    3.2276 H   0  0  0  0  0  0  0  0  0  0  0  0
    3.7334    1.5708    4.7086 H   0  0  0  0  0  0  0  0  0  0  0  0
    2.1560    0.9126    5.2797 H   0  0  0  0  0  0  0  0  0  0  0  0
    2.8716    0.3993    3.6552 H   0  0  0  0  0  0  0  0  0  0  0  0
   -6.9240   -6.0736    5.5327 H   0  0  0  0  0  0  0  0  0  0  0  0
    3.7744    6.0736    3.0592 H   0  0  0  0  0  0  0  0  0  0  0  0
    2.7388    4.6688    2.6328 H   0  0  0  0  0  0  0  0  0  0  0  0
    4.5279    4.4417    3.0251 H   0  0  0  0  0  0  0  0  0  0  0  0
    0.2395   -2.2920   -7.0407 H   0  0  0  0  0  0  0  0  0  0  0  0
    1.2657   -1.8110   -5.6453 H   0  0  0  0  0  0  0  0  0  0  0  0
   -0.1712   -2.9448   -5.4170 H   0  0  0  0  0  0  0  0  0  0  0  0
  1 36  1  0      
  2 20  2  0      
  3 21  2  0      
  4 22  2  0      
  5 30  1  0      
  5 38  1  0      
  6 27  2  0      
  7 31  1  0      
  7 44  1  0      
  8 30  2  0      
  9 33  1  0      
  9 46  1  0      
 10 31  2  0      
 11 33  2  0      
 12 37  1  0      
 12 47  1  0      
 13 37  2  0      
 18 14  1  0      
 14 20  1  0      
 14 48  1  0      
 19 15  1  0      
 15 22  1  0      
 15 49  1  0      
 16 21  1  0      
 25 16  1  0      
 16 50  1  0      
 23 17  1  0      
 17 30  1  0      
 17 51  1  0      
 18 21  1  0      
 18 24  1  0      
 18 52  1  0      
 19 20  1  0      
 19 26  1  0      
 19 53  1  0      
 22 23  1  0      
 23 28  1  0      
 23 54  1  0      
 24 34  1  0      
 24 35  1  0      
 24 55  1  0      
 25 27  1  0      
 25 29  1  0      
 25 56  1  0      
 26 32  1  0      
 26 57  1  0      
 26 58  1  0      
 27 36  1  0      
 28 31  1  0      
 28 59  1  0      
 28 60  1  0      
 29 33  1  0      
 29 61  1  0      
 29 62  1  0      
 32 37  1  0      
 32 63  1  0      
 32 64  1  0      
 34 65  1  0      
 34 66  1  0      
 34 67  1  0      
 35 68  1  0      
 35 69  1  0      
 35 70  1  0      
 36 71  1  0      
 36 72  1  0      
 38 39  1  0      
 38 73  1  0      
 38 74  1  0      
 39 40  1  0      
 39 41  2  0      
 40 42  2  0      
 40 75  1  0      
 43 41  1  0      
 41 76  1  0      
 42 45  1  0      
 42 77  1  0      
 45 43  2  0      
 43 78  1  0      
 44 79  1  0      
 44 80  1  0      
 44 81  1  0      
 45 82  1  0      
 46 83  1  0      
 46 84  1  0      
 46 85  1  0      
 47 86  1  0      
 47 87  1  0      
 47 88  1  0      
M  END
