


 31 33  0  0000  0  0  0  0  0999 V2000
    5.4641   -3.1550    0.0000 O   0  0  0  0  0  0  0  0  0  0  0
    4.5981    1.3450    0.0000 O   0  0  0  0  0  0  0  0  0  0  0
    5.4641    5.8450    0.0000 O   0  0  0  0  0  0  0  0  0  0  0
    4.5981   -1.6550    0.0000 N   0  0  0  0  0  0  0  0  0  0  0
    2.8660   -5.6550    0.0000 N   0  0  0  0  0  0  0  0  0  0  0
    6.3301    1.3450    0.0000 N   0  0  0  0  0  0  0  0  0  0  0
    6.3301    0.3450    0.0000 C   0  0  0  0  0  0  0  0  0  0  0
    7.1962   -0.1550    0.0000 C   0  0  0  0  0  0  0  0  0  0  0
    5.4641   -1.1550    0.0000 C   0  0  0  0  0  0  0  0  0  0  0
    5.4641   -0.1550    0.0000 C   0  0  0  0  0  0  0  0  0  0  0
    3.7321   -3.1550    0.0000 C   0  0  0  0  0  0  0  0  0  0  0
    2.8660   -4.6550    0.0000 C   0  0  0  0  0  0  0  0  0  0  0
    7.1962   -1.1550    0.0000 C   0  0  0  0  0  0  0  0  0  0  0
    6.3301   -1.6550    0.0000 C   0  0  0  0  0  0  0  0  0  0  0
    3.7321   -4.1550    0.0000 C   0  0  0  0  0  0  0  0  0  0  0
    4.5981   -2.6550    0.0000 C   0  0  0  0  0  0  0  0  0  0  0
    8.0622    0.3450    0.0000 C   0  0  0  0  0  0  0  0  0  0  0
    2.8660   -2.6550    0.0000 C   0  0  0  0  0  0  0  0  0  0  0
    2.0000   -4.1550    0.0000 C   0  0  0  0  0  0  0  0  0  0  0
    2.0000   -3.1550    0.0000 C   0  0  0  0  0  0  0  0  0  0  0
    5.4641    1.8450    0.0000 C   0  0  0  0  0  0  0  0  0  0  0
    5.4641    2.8450    0.0000 C   0  0  0  0  0  0  0  0  0  0  0
    2.0000   -6.1550    0.0000 C   0  0  0  0  0  0  0  0  0  0  0
    3.7321   -6.1550    0.0000 C   0  0  0  0  0  0  0  0  0  0  0
    4.5981    3.3450    0.0000 C   0  0  0  0  0  0  0  0  0  0  0
    6.3301    3.3450    0.0000 C   0  0  0  0  0  0  0  0  0  0  0
    4.5981    4.3450    0.0000 C   0  0  0  0  0  0  0  0  0  0  0
    6.3301    4.3450    0.0000 C   0  0  0  0  0  0  0  0  0  0  0
    5.4641    4.8450    0.0000 C   0  0  0  0  0  0  0  0  0  0  0
    4.0611   -1.3450    0.0000 H   0  0  0  0  0  0  0  0  0  0  0
    6.8671    1.6550    0.0000 H   0  0  0  0  0  0  0  0  0  0  0
  1 16  2  0
  2 21  2  0
  3 29  1  0
  4  9  1  0
  4 16  1  0
  4 30  1  0
  5 12  1  0
  5 23  1  0
  5 24  1  0
  6  7  1  0
  6 21  1  0
  6 31  1  0
  7  8  2  0
  7 10  1  0
  8 13  1  0
  8 17  1  0
  9 10  2  0
  9 14  1  0
 11 15  2  0
 11 16  1  0
 11 18  1  0
 12 15  1  0
 12 19  2  0
 13 14  2  0
 18 20  2  0
 19 20  1  0
 21 22  1  0
 22 25  2  0
 22 26  1  0
 25 27  1  0
 26 28  2  0
 27 29  2  0
 28 29  1  0
M  END

> <PUBCHEM_BONDANNOTATIONS>
11  15  8
11  18  8
12  15  8
12  19  8
13  14  8
18  20  8
19  20  8
22  25  8
22  26  8
25  27  8
26  28  8
27  29  8
28  29  8
7  10  8
7  8  8
8  13  8
9  10  8
9  14  8

> <StdInChI>
InChI=1S/C23H23N3O3/c1-15-7-10-18(24-23(29)17-5-4-6-19(13-17)26(2)3)14-21(15)25-22(28)16-8-11-20(27)12-9-16/h4-14,27H,1-3H3,(H,24,29)(H,25,28)

> <StdInChIKey>
PYEFPDQFAZNXLI-UHFFFAOYSA-N

> <AuxInfo>
1/1/N:17,23,24,20,18,19,13,25,26,14,27,28,15,10,8,22,11,9,12,29,7,21,16,4,6,5,3,2,1/E:(2,3)(8,9)(11,12)/rA:52nOOONNNCCCCCCCCCCCCCCCCCCCCCCCHHHHHHHHHHHHHHHHHHHHHHH/rB:;;;;;s6;d7;s4;s7d9;;s5;s8;s9d13;d11s12;d1s4s11;s8;s11;d12;d18s19;d2s6;s21;s5;s5;d22;s22;s25;d26;s3d27s28;s10;s13;s14;s4;s15;s6;s17;s17;s17;s19;s18;s20;s23;s23;s23;s24;s24;s24;s25;s26;s27;s28;s3;/rC:5.4641,-3.155,0;4.5981,1.345,0;5.4641,5.845,0;4.5981,-1.655,0;2.866,-5.655,0;6.3301,1.345,0;6.3301,.345,0;7.1962,-.155,0;5.4641,-1.155,0;5.4641,-.155,0;3.7321,-3.155,0;2.866,-4.655,0;7.1962,-1.155,0;6.3301,-1.655,0;3.7321,-4.155,0;4.5981,-2.655,0;8.0622,.345,0;2.866,-2.655,0;2,-4.155,0;2,-3.155,0;5.4641,1.845,0;5.4641,2.845,0;2,-6.155,0;3.7321,-6.155,0;4.5981,3.345,0;6.3301,3.345,0;4.5981,4.345,0;6.3301,4.345,0;5.4641,4.845,0;4.9272,.155,0;7.7331,-1.465,0;6.3301,-2.275,0;4.0611,-1.345,0;4.269,-4.465,0;6.8671,1.655,0;8.3722,-.1919,0;7.7522,.8819,0;8.5991,.655,0;1.4631,-4.465,0;2.866,-2.035,0;1.4631,-2.845,0;1.69,-5.6181,0;1.4631,-6.465,0;2.31,-6.6919,0;3.4221,-6.6919,0;4.269,-6.465,0;4.0421,-5.6181,0;4.0611,3.035,0;6.8671,3.035,0;4.0611,4.655,0;6.8671,4.655,0;4.9272,6.155,0;

> <Formula>
C23 H23 N3 O3

> <Mw>
389.447

> <SMILES>
O=C(C1C([H])=C([H])C([H])=C(C=1[H])N(C([H])([H])[H])C([H])([H])[H])N([H])C1C([H])=C([H])C(C([H])([H])[H])=C(C=1[H])N([H])C(C1C([H])=C([H])C(=C([H])C=1[H])O[H])=O

> <CSID>
5528

$$$$
