
  Chem3D Core 15.008171512563D

148152  0  0  0  0  0  0  0  0999 V2000
   -5.3254    1.0117   -1.1110 C   0  0  0  0  0  0  0  0  0  0  0  0
   -5.0813   -0.4464   -0.6230 C   0  0  0  0  0  0  0  0  0  0  0  0
   -4.2565    1.8539   -1.0766 C   0  0  0  0  0  0  0  0  0  0  0  0
   -4.3991    3.2066   -1.2592 N   0  0  0  0  0  0  0  0  0  0  0  0
    2.7216    4.4225   -4.6514 N   0  0  0  0  0  0  0  0  0  0  0  0
   -3.0251    3.6098    0.8211 C   0  0  0  0  0  0  0  0  0  0  0  0
    2.4139    5.6106   -4.5891 N   0  0  0  0  0  0  0  0  0  0  0  0
    2.4796    6.0490   -5.7647 N   0  0  0  0  0  0  0  0  0  0  0  0
    1.5990   -4.3027    3.4289 C   0  0  0  0  0  0  0  0  0  0  0  0
    2.8233    5.1618   -6.5878 N   0  0  0  0  0  0  0  0  0  0  0  0
   -1.6746    3.5228    0.6834 O   0  0  0  0  0  0  0  0  0  0  0  0
    2.6486   -5.3949    3.1296 C   0  0  0  0  0  0  0  0  0  0  0  0
   -0.7069   -3.3337    2.6880 C   0  0  0  0  0  0  0  0  0  0  0  0
   -3.6632    4.1961   -0.4535 C   0  0  0  0  0  0  0  0  0  0  0  0
   -4.1330   -1.0369   -1.4906 O   0  0  0  0  0  0  0  0  0  0  0  0
    2.7977    3.4001   -3.5910 C   0  0  0  0  0  0  0  0  0  0  0  0
    0.3710   -4.3880    2.5093 C   0  0  0  0  0  0  0  0  0  0  0  0
   -0.4108   -2.0277    2.8157 C   0  0  0  0  0  0  0  0  0  0  0  0
    2.9697    4.1374   -5.8598 C   0  0  0  0  0  0  0  0  0  0  0  0
   -0.8891    2.7661    1.5672 C   0  0  0  0  0  0  0  0  0  0  0  0
   -0.7703    0.4725    2.8108 C   0  0  0  0  0  0  0  0  0  0  0  0
   -1.3357    1.2944    1.6588 C   0  0  0  0  0  0  0  0  0  0  0  0
    4.0451   -5.3505    3.7638 C   0  0  0  0  0  0  0  0  0  0  0  0
    1.5370    2.5184   -3.5733 C   0  0  0  0  0  0  0  0  0  0  0  0
   -1.3990   -0.9057    3.0440 C   0  0  0  0  0  0  0  0  0  0  0  0
   -0.0592   -2.3759   -1.4882 C   0  0  0  0  0  0  0  0  0  0  0  0
   -1.4589   -1.8171   -1.7022 C   0  0  0  0  0  0  0  0  0  0  0  0
   -6.4267    1.3696   -1.4778 O   0  0  0  0  0  0  0  0  0  0  0  0
   -6.3339   -1.3242   -0.4721 C   0  0  0  0  0  0  0  0  0  0  0  0
   -2.5993   -2.8267   -1.9337 C   0  0  0  0  0  0  0  0  0  0  0  0
    3.0567    4.0338   -2.2123 C   0  0  0  0  0  0  0  0  0  0  0  0
   -3.1768    1.4387   -0.7214 O   0  0  0  0  0  0  0  0  0  0  0  0
   -3.9208   -2.3978   -1.2740 C   0  0  0  0  0  0  0  0  0  0  0  0
   -3.6627    3.2525    1.7855 O   0  0  0  0  0  0  0  0  0  0  0  0
    0.5764    2.9003    1.0816 C   0  0  0  0  0  0  0  0  0  0  0  0
    2.3678   -6.3458    2.4311 O   0  0  0  0  0  0  0  0  0  0  0  0
    1.6590    1.4798   -2.4500 C   0  0  0  0  0  0  0  0  0  0  0  0
    0.7688   -1.7255   -0.6465 C   0  0  0  0  0  0  0  0  0  0  0  0
   -4.3841   -0.3593    0.6160 O   0  0  0  0  0  0  0  0  0  0  0  0
    4.8469   -4.0375    3.6552 C   0  0  0  0  0  0  0  0  0  0  0  0
    0.1150    0.8777    3.5292 O   0  0  0  0  0  0  0  0  0  0  0  0
    0.6690    2.7360   -0.4544 C   0  0  0  0  0  0  0  0  0  0  0  0
    1.9265    2.0676   -1.0460 C   0  0  0  0  0  0  0  0  0  0  0  0
    1.9606   -2.1621   -0.2060 C   0  0  0  0  0  0  0  0  0  0  0  0
    2.6216   -1.5270    0.7773 C   0  0  0  0  0  0  0  0  0  0  0  0
    3.6768   -1.9973    1.4641 C   0  0  0  0  0  0  0  0  0  0  0  0
    4.2515   -3.2057    1.3442 C   0  0  0  0  0  0  0  0  0  0  0  0
   -6.4143   -2.3154   -1.6476 C   0  0  0  0  0  0  0  0  0  0  0  0
    1.1635   -4.4313    4.7681 O   0  0  0  0  0  0  0  0  0  0  0  0
   -5.0460    3.7797   -2.4374 C   0  0  0  0  0  0  0  0  0  0  0  0
    3.1758    2.9592   -1.1227 C   0  0  0  0  0  0  0  0  0  0  0  0
    0.7929   -4.3264    1.1602 O   0  0  0  0  0  0  0  0  0  0  0  0
   -5.1473   -3.1820   -1.7408 C   0  0  0  0  0  0  0  0  0  0  0  0
    5.3664   -3.6919    2.2437 C   0  0  0  0  0  0  0  0  0  0  0  0
    0.4157    3.3531   -3.4501 O   0  0  0  0  0  0  0  0  0  0  0  0
   -1.4922   -0.7558   -2.6357 O   0  0  0  0  0  0  0  0  0  0  0  0
   -2.1186   -3.8700    2.6213 C   0  0  0  0  0  0  0  0  0  0  0  0
   -4.5964    5.3518   -0.0408 C   0  0  0  0  0  0  0  0  0  0  0  0
    0.2811   -3.6739   -2.1832 C   0  0  0  0  0  0  0  0  0  0  0  0
    3.9794   -5.8400    5.2228 C   0  0  0  0  0  0  0  0  0  0  0  0
   -1.9662   -0.9687    4.4724 C   0  0  0  0  0  0  0  0  0  0  0  0
    1.1292    4.2619    1.5459 C   0  0  0  0  0  0  0  0  0  0  0  0
   -6.4615   -2.0658    0.8739 C   0  0  0  0  0  0  0  0  0  0  0  0
    1.3508   -3.2734    5.5525 C   0  0  0  0  0  0  0  0  0  0  0  0
   -0.8204    2.7236   -3.7082 C   0  0  0  0  0  0  0  0  0  0  0  0
   -0.9105   -1.0592   -3.8852 C   0  0  0  0  0  0  0  0  0  0  0  0
    6.5214   -2.6749    2.3044 C   0  0  0  0  0  0  0  0  0  0  0  0
   -6.0321    4.8840   -2.0419 C   0  0  0  0  0  0  0  0  0  0  0  0
   -5.2947    5.9757   -1.2558 C   0  0  0  0  0  0  0  0  0  0  0  0
   -1.0002    3.2162    2.5830 H   0  0  0  0  0  0  0  0  0  0  0  0
   -2.8446    4.6165   -1.0882 H   0  0  0  0  0  0  0  0  0  0  0  0
   -3.7692   -2.5558   -0.1789 H   0  0  0  0  0  0  0  0  0  0  0  0
    2.1159   -3.3334    3.2702 H   0  0  0  0  0  0  0  0  0  0  0  0
    3.6801    2.7512   -3.8214 H   0  0  0  0  0  0  0  0  0  0  0  0
   -0.0921   -5.3919    2.6589 H   0  0  0  0  0  0  0  0  0  0  0  0
    0.6480   -1.7283    2.8083 H   0  0  0  0  0  0  0  0  0  0  0  0
    3.2629    3.1412   -6.2094 H   0  0  0  0  0  0  0  0  0  0  0  0
   -2.4365    1.2311    1.7973 H   0  0  0  0  0  0  0  0  0  0  0  0
   -1.0917    0.7471    0.7221 H   0  0  0  0  0  0  0  0  0  0  0  0
    4.6493   -6.1243    3.2222 H   0  0  0  0  0  0  0  0  0  0  0  0
    1.4681    1.9908   -4.5560 H   0  0  0  0  0  0  0  0  0  0  0  0
   -2.2329   -1.0208    2.3125 H   0  0  0  0  0  0  0  0  0  0  0  0
   -1.7088   -1.3392   -0.7203 H   0  0  0  0  0  0  0  0  0  0  0  0
   -7.2523   -0.6878   -0.5095 H   0  0  0  0  0  0  0  0  0  0  0  0
   -2.3319   -3.8156   -1.4912 H   0  0  0  0  0  0  0  0  0  0  0  0
   -2.7505   -3.0039   -3.0209 H   0  0  0  0  0  0  0  0  0  0  0  0
    4.0000    4.6302   -2.2479 H   0  0  0  0  0  0  0  0  0  0  0  0
    2.2399    4.7455   -1.9534 H   0  0  0  0  0  0  0  0  0  0  0  0
    1.1930    2.1026    1.5598 H   0  0  0  0  0  0  0  0  0  0  0  0
    0.7787    0.8021   -2.4272 H   0  0  0  0  0  0  0  0  0  0  0  0
    2.5130    0.8064   -2.7078 H   0  0  0  0  0  0  0  0  0  0  0  0
    0.3891   -0.7845   -0.2129 H   0  0  0  0  0  0  0  0  0  0  0  0
   -3.4856   -0.0778    0.4283 H   0  0  0  0  0  0  0  0  0  0  0  0
    5.7465   -4.1561    4.3074 H   0  0  0  0  0  0  0  0  0  0  0  0
    4.2799   -3.1844    4.0884 H   0  0  0  0  0  0  0  0  0  0  0  0
   -0.1740    2.0782   -0.7678 H   0  0  0  0  0  0  0  0  0  0  0  0
    0.4737    3.7229   -0.9258 H   0  0  0  0  0  0  0  0  0  0  0  0
    2.1658    1.2042   -0.3754 H   0  0  0  0  0  0  0  0  0  0  0  0
    2.3446   -3.1198   -0.5810 H   0  0  0  0  0  0  0  0  0  0  0  0
    2.2276   -0.5553    1.1282 H   0  0  0  0  0  0  0  0  0  0  0  0
    4.0628   -1.3416    2.2641 H   0  0  0  0  0  0  0  0  0  0  0  0
    3.8966   -3.9391    0.6034 H   0  0  0  0  0  0  0  0  0  0  0  0
   -7.3235   -2.9572   -1.5789 H   0  0  0  0  0  0  0  0  0  0  0  0
   -6.5201   -1.7223   -2.5890 H   0  0  0  0  0  0  0  0  0  0  0  0
   -5.5490    3.0125   -3.0661 H   0  0  0  0  0  0  0  0  0  0  0  0
   -4.2568    4.2062   -3.1012 H   0  0  0  0  0  0  0  0  0  0  0  0
    3.3973    3.4196   -0.1359 H   0  0  0  0  0  0  0  0  0  0  0  0
    4.0612    2.3199   -1.3569 H   0  0  0  0  0  0  0  0  0  0  0  0
    0.4294   -3.5332    0.7551 H   0  0  0  0  0  0  0  0  0  0  0  0
   -5.2537   -4.1018   -1.1183 H   0  0  0  0  0  0  0  0  0  0  0  0
   -5.0264   -3.5248   -2.7950 H   0  0  0  0  0  0  0  0  0  0  0  0
    5.7971   -4.6172    1.7832 H   0  0  0  0  0  0  0  0  0  0  0  0
   -2.9102   -3.0931    2.6520 H   0  0  0  0  0  0  0  0  0  0  0  0
   -2.2636   -4.4254    1.6666 H   0  0  0  0  0  0  0  0  0  0  0  0
   -2.3029   -4.5664    3.4704 H   0  0  0  0  0  0  0  0  0  0  0  0
   -4.0180    6.1343    0.5061 H   0  0  0  0  0  0  0  0  0  0  0  0
   -5.3804    4.9705    0.6562 H   0  0  0  0  0  0  0  0  0  0  0  0
   -0.1851   -3.7228   -3.1914 H   0  0  0  0  0  0  0  0  0  0  0  0
    1.3696   -3.8105   -2.3557 H   0  0  0  0  0  0  0  0  0  0  0  0
   -0.0879   -4.5396   -1.5891 H   0  0  0  0  0  0  0  0  0  0  0  0
    4.9934   -6.0796    5.6177 H   0  0  0  0  0  0  0  0  0  0  0  0
    3.3653   -6.7652    5.3137 H   0  0  0  0  0  0  0  0  0  0  0  0
    3.5439   -5.0716    5.8976 H   0  0  0  0  0  0  0  0  0  0  0  0
   -2.7063   -0.1522    4.6383 H   0  0  0  0  0  0  0  0  0  0  0  0
   -2.4865   -1.9304    4.6781 H   0  0  0  0  0  0  0  0  0  0  0  0
   -1.1643   -0.8592    5.2371 H   0  0  0  0  0  0  0  0  0  0  0  0
    2.1908    4.4106    1.2585 H   0  0  0  0  0  0  0  0  0  0  0  0
    1.0901    4.3550    2.6552 H   0  0  0  0  0  0  0  0  0  0  0  0
    0.5462    5.1072    1.1156 H   0  0  0  0  0  0  0  0  0  0  0  0
   -7.4021   -2.6619    0.9132 H   0  0  0  0  0  0  0  0  0  0  0  0
   -6.5002   -1.3518    1.7282 H   0  0  0  0  0  0  0  0  0  0  0  0
   -5.6260   -2.7742    1.0613 H   0  0  0  0  0  0  0  0  0  0  0  0
    1.0155   -3.5051    6.5878 H   0  0  0  0  0  0  0  0  0  0  0  0
    2.4238   -2.9854    5.5826 H   0  0  0  0  0  0  0  0  0  0  0  0
    0.7351   -2.4357    5.1643 H   0  0  0  0  0  0  0  0  0  0  0  0
   -1.6169    3.4976   -3.6340 H   0  0  0  0  0  0  0  0  0  0  0  0
   -0.8339    2.2999   -4.7361 H   0  0  0  0  0  0  0  0  0  0  0  0
   -1.0407    1.9431   -2.9516 H   0  0  0  0  0  0  0  0  0  0  0  0
   -1.0617   -0.1830   -4.5534 H   0  0  0  0  0  0  0  0  0  0  0  0
    0.1837   -1.2234   -3.7801 H   0  0  0  0  0  0  0  0  0  0  0  0
   -1.4004   -1.9360   -4.3573 H   0  0  0  0  0  0  0  0  0  0  0  0
    6.2367   -1.7428    2.8411 H   0  0  0  0  0  0  0  0  0  0  0  0
    7.4021   -3.0990    2.8393 H   0  0  0  0  0  0  0  0  0  0  0  0
    6.8626   -2.3937    1.2815 H   0  0  0  0  0  0  0  0  0  0  0  0
   -6.5049    5.3231   -2.9526 H   0  0  0  0  0  0  0  0  0  0  0  0
   -6.8490    4.4492   -1.4184 H   0  0  0  0  0  0  0  0  0  0  0  0
   -6.0120    6.7652   -0.9274 H   0  0  0  0  0  0  0  0  0  0  0  0
   -4.5377    6.4679   -1.9116 H   0  0  0  0  0  0  0  0  0  0  0  0
  1  2  1  0      
  1  3  1  0      
  1 28  2  0      
  2 15  1  0      
  2 29  1  0      
  2 39  1  0      
  3  4  1  0      
  3 32  2  0      
  4 14  1  0      
  4 50  1  0      
  5  7  1  0      
 16  5  1  0      
  5 19  1  0      
  6 11  1  0      
  6 14  1  0      
  6 34  2  0      
  8  7  2  0      
 10  8  1  0      
  9 12  1  0      
  9 17  1  0      
  9 49  1  0      
  9 73  1  0      
 19 10  2  0      
 11 20  1  0      
 12 23  1  0      
 12 36  2  0      
 13 17  1  0      
 13 18  2  0      
 13 57  1  0      
 14 58  1  0      
 14 71  1  0      
 15 33  1  0      
 16 24  1  0      
 16 31  1  0      
 16 74  1  0      
 17 52  1  0      
 17 75  1  0      
 18 25  1  0      
 18 76  1  0      
 19 77  1  0      
 20 22  1  0      
 20 35  1  0      
 20 70  1  0      
 21 22  1  0      
 21 25  1  0      
 21 41  2  0      
 22 78  1  0      
 22 79  1  0      
 23 40  1  0      
 23 60  1  0      
 23 80  1  0      
 24 37  1  0      
 24 55  1  0      
 24 81  1  0      
 25 61  1  0      
 25 82  1  0      
 26 27  1  0      
 26 38  2  0      
 26 59  1  0      
 27 30  1  0      
 27 56  1  0      
 27 83  1  0      
 29 48  1  0      
 29 63  1  0      
 29 84  1  0      
 30 33  1  0      
 30 85  1  0      
 30 86  1  0      
 51 31  1  0      
 31 87  1  0      
 31 88  1  0      
 33 53  1  0      
 33 72  1  0      
 35 42  1  0      
 35 62  1  0      
 35 89  1  0      
 37 43  1  0      
 37 90  1  0      
 37 91  1  0      
 38 44  1  0      
 38 92  1  0      
 39 93  1  0      
 40 54  1  0      
 40 94  1  0      
 40 95  1  0      
 43 42  1  0      
 42 96  1  0      
 42 97  1  0      
 43 51  1  0      
 43 98  1  0      
 44 45  2  0      
 44 99  1  0      
 45 46  1  0      
 45100  1  0      
 46 47  2  0      
 46101  1  0      
 47 54  1  0      
 47102  1  0      
 48 53  1  0      
 48103  1  0      
 48104  1  0      
 49 64  1  0      
 50 68  1  0      
 50105  1  0      
 50106  1  0      
 51107  1  0      
 51108  1  0      
 52109  1  0      
 53110  1  0      
 53111  1  0      
 54 67  1  0      
 54112  1  0      
 55 65  1  0      
 56 66  1  0      
 57113  1  0      
 57114  1  0      
 57115  1  0      
 58 69  1  0      
 58116  1  0      
 58117  1  0      
 59118  1  0      
 59119  1  0      
 59120  1  0      
 60121  1  0      
 60122  1  0      
 60123  1  0      
 61124  1  0      
 61125  1  0      
 61126  1  0      
 62127  1  0      
 62128  1  0      
 62129  1  0      
 63130  1  0      
 63131  1  0      
 63132  1  0      
 64133  1  0      
 64134  1  0      
 64135  1  0      
 65136  1  0      
 65137  1  0      
 65138  1  0      
 66139  1  0      
 66140  1  0      
 66141  1  0      
 67142  1  0      
 67143  1  0      
 67144  1  0      
 68 69  1  0      
 68145  1  0      
 68146  1  0      
 69147  1  0      
 69148  1  0      
M  END
