
  Chem3D Core 15.010151510543D

101106  0  0  0  0  0  0  0  0999 V2000
    4.7292    3.3103    4.8117 O   0  0  0  0  0  0  0  0  0  0  0  0
    5.3064    2.5940    3.8683 N   0  3  0  0  0  0  0  0  0  0  0  0
    6.5939    2.6475    4.0871 O   0  5  0  0  0  0  0  0  0  0  0  0
    4.6525    2.0314    2.9499 C   0  0  0  0  0  0  0  0  0  0  0  0
    5.1665    1.2758    1.9490 C   0  0  0  0  0  0  0  0  0  0  0  0
    6.3909    0.9555    1.8116 N   0  0  0  0  0  0  0  0  0  0  0  0
    7.1193    0.1863    0.7804 C   0  0  0  0  0  0  0  0  0  0  0  0
    8.4364   -0.3381    1.3924 C   0  0  0  0  0  0  0  0  0  0  0  0
    8.0873   -1.6986    2.5529 S   0  0  0  0  0  0  0  0  0  0  0  0
    7.7452   -0.6946    4.0328 C   0  0  0  0  0  0  0  0  0  0  0  0
    8.7174    0.0225    4.6187 C   0  0  0  0  0  0  0  0  0  0  0  0
    8.4500    0.7277    5.7294 C   0  0  0  0  0  0  0  0  0  0  0  0
    7.2156    0.7118    6.2566 C   0  0  0  0  0  0  0  0  0  0  0  0
    6.2446   -0.0047    5.6688 C   0  0  0  0  0  0  0  0  0  0  0  0
    6.5091   -0.7096    4.5576 C   0  0  0  0  0  0  0  0  0  0  0  0
    7.3770    1.0875   -0.4463 C   0  0  0  0  0  0  0  0  0  0  0  0
    8.2582    2.3168   -0.1494 C   0  0  0  0  0  0  0  0  0  0  0  0
    8.1601    3.3666   -1.1594 N   0  0  0  0  0  0  0  0  0  0  0  0
    8.9523    4.5250   -0.7683 C   0  0  0  0  0  0  0  0  0  0  0  0
    8.5569    2.9071   -2.4820 C   0  0  0  0  0  0  0  0  0  0  0  0
    4.3128    0.8014    1.0154 C   0  0  0  0  0  0  0  0  0  0  0  0
    2.9911    1.0146    1.0420 C   0  0  0  0  0  0  0  0  0  0  0  0
    3.3117    2.2287    2.9582 C   0  0  0  0  0  0  0  0  0  0  0  0
    2.4662    1.7313    2.0409 C   0  0  0  0  0  0  0  0  0  0  0  0
    0.6919    2.0328    2.1328 S   0  0  0  0  0  0  0  0  0  0  0  0
   -0.0720    1.0884    1.3291 O   0  0  0  0  0  0  0  0  0  0  0  0
    0.3245    2.4466    3.4807 O   0  0  0  0  0  0  0  0  0  0  0  0
    1.0950    3.4146    1.2120 N   0  0  0  0  0  0  0  0  0  0  0  0
    0.7203    3.6393   -0.0928 C   0  0  0  0  0  0  0  0  0  0  0  0
    1.6241    3.7658   -0.8859 O   0  0  0  0  0  0  0  0  0  0  0  0
   -0.5999    3.6500   -0.4356 C   0  0  0  0  0  0  0  0  0  0  0  0
   -0.9790    3.6286   -1.7239 C   0  0  0  0  0  0  0  0  0  0  0  0
   -2.2763    3.6363   -2.0737 C   0  0  0  0  0  0  0  0  0  0  0  0
   -1.5909    3.7047    0.4684 C   0  0  0  0  0  0  0  0  0  0  0  0
   -2.8813    3.7099    0.0940 C   0  0  0  0  0  0  0  0  0  0  0  0
   -3.2992    3.6735   -1.1909 C   0  0  0  0  0  0  0  0  0  0  0  0
   -4.5359    3.6752   -1.5360 N   0  0  0  0  0  0  0  0  0  0  0  0
   -5.6683    3.6764   -0.5656 C   0  0  0  0  0  0  0  0  0  0  0  0
   -6.4884    2.3973   -0.8099 C   0  0  0  0  0  0  0  0  0  0  0  0
   -5.0012    3.6312   -2.9518 C   0  0  0  0  0  0  0  0  0  0  0  0
   -5.8314    2.3487   -3.1244 C   0  0  0  0  0  0  0  0  0  0  0  0
   -6.9515    2.3048   -2.1896 N   0  0  0  0  0  0  0  0  0  0  0  0
   -7.7683    1.1061   -2.3909 C   0  0  0  0  0  0  0  0  0  0  0  0
   -8.4979    1.1372   -3.7356 C   0  0  0  0  0  0  0  0  0  0  0  0
   -9.0516    2.3215   -4.0693 C   0  0  0  0  0  0  0  0  0  0  0  0
   -9.5984    2.5484   -5.2694 C   0  0  0  0  0  0  0  0  0  0  0  0
   -9.5809    1.5647   -6.1739 C   0  0  0  0  0  0  0  0  0  0  0  0
   -9.0551    0.3765   -5.8434 C   0  0  0  0  0  0  0  0  0  0  0  0
   -8.5317    0.1094   -4.6247 C   0  0  0  0  0  0  0  0  0  0  0  0
   -8.1135   -1.1583   -4.3727 C   0  0  0  0  0  0  0  0  0  0  0  0
   -8.2224   -1.7245   -3.1521 C   0  0  0  0  0  0  0  0  0  0  0  0
   -7.8293   -2.9816   -2.8917 C   0  0  0  0  0  0  0  0  0  0  0  0
   -7.6180   -1.9624   -5.3394 C   0  0  0  0  0  0  0  0  0  0  0  0
   -7.2146   -3.2213   -5.1023 C   0  0  0  0  0  0  0  0  0  0  0  0
   -7.3129   -3.7375   -3.8698 C   0  0  0  0  0  0  0  0  0  0  0  0
   -6.8063   -5.3568   -3.5535 Cl  0  0  0  0  0  0  0  0  0  0  0  0
    7.0041    1.3232    2.5813 H   0  0  0  0  0  0  0  0  0  0  0  0
    6.5183   -0.6999    0.4661 H   0  0  0  0  0  0  0  0  0  0  0  0
    9.0624   -0.7574    0.5690 H   0  0  0  0  0  0  0  0  0  0  0  0
    9.0293    0.4814    1.8550 H   0  0  0  0  0  0  0  0  0  0  0  0
    9.7400    0.0308    4.2070 H   0  0  0  0  0  0  0  0  0  0  0  0
    9.2474    1.3155    6.2142 H   0  0  0  0  0  0  0  0  0  0  0  0
    6.9980    1.2897    7.1703 H   0  0  0  0  0  0  0  0  0  0  0  0
    5.2297   -0.0154    6.1002 H   0  0  0  0  0  0  0  0  0  0  0  0
    5.7045   -1.3007    4.0893 H   0  0  0  0  0  0  0  0  0  0  0  0
    7.8508    0.4665   -1.2431 H   0  0  0  0  0  0  0  0  0  0  0  0
    6.3988    1.4390   -0.8517 H   0  0  0  0  0  0  0  0  0  0  0  0
    7.9314    2.7400    0.8308 H   0  0  0  0  0  0  0  0  0  0  0  0
    9.3185    1.9926   -0.0256 H   0  0  0  0  0  0  0  0  0  0  0  0
    8.8295    5.3568   -1.4992 H   0  0  0  0  0  0  0  0  0  0  0  0
    8.6194    4.9232    0.2176 H   0  0  0  0  0  0  0  0  0  0  0  0
   10.0372    4.2807   -0.6983 H   0  0  0  0  0  0  0  0  0  0  0  0
    8.5001    3.7355   -3.2247 H   0  0  0  0  0  0  0  0  0  0  0  0
    7.8725    2.1169   -2.8627 H   0  0  0  0  0  0  0  0  0  0  0  0
    9.5971    2.5081   -2.4853 H   0  0  0  0  0  0  0  0  0  0  0  0
    4.6495    0.1870    0.1658 H   0  0  0  0  0  0  0  0  0  0  0  0
    2.3509    0.5908    0.2503 H   0  0  0  0  0  0  0  0  0  0  0  0
    2.8371    2.8417    3.7422 H   0  0  0  0  0  0  0  0  0  0  0  0
    2.0105    3.8022    1.3901 H   0  0  0  0  0  0  0  0  0  0  0  0
   -0.2317    3.5906   -2.5354 H   0  0  0  0  0  0  0  0  0  0  0  0
   -2.4246    3.6017   -3.1614 H   0  0  0  0  0  0  0  0  0  0  0  0
   -1.3800    3.7693    1.5482 H   0  0  0  0  0  0  0  0  0  0  0  0
   -3.5719    3.7569    0.9468 H   0  0  0  0  0  0  0  0  0  0  0  0
   -5.4227    3.7408    0.5115 H   0  0  0  0  0  0  0  0  0  0  0  0
   -6.3058    4.5696   -0.7682 H   0  0  0  0  0  0  0  0  0  0  0  0
   -5.8640    1.5105   -0.5442 H   0  0  0  0  0  0  0  0  0  0  0  0
   -7.3631    2.4060   -0.1150 H   0  0  0  0  0  0  0  0  0  0  0  0
   -4.2337    3.6796   -3.7474 H   0  0  0  0  0  0  0  0  0  0  0  0
   -5.6525    4.5186   -3.1361 H   0  0  0  0  0  0  0  0  0  0  0  0
   -6.2006    2.3121   -4.1771 H   0  0  0  0  0  0  0  0  0  0  0  0
   -5.1616    1.4666   -2.9833 H   0  0  0  0  0  0  0  0  0  0  0  0
   -8.5564    1.0378   -1.6029 H   0  0  0  0  0  0  0  0  0  0  0  0
   -7.0835    0.2355   -2.2889 H   0  0  0  0  0  0  0  0  0  0  0  0
   -9.0460    3.1617   -3.3549 H   0  0  0  0  0  0  0  0  0  0  0  0
  -10.0372    3.5294   -5.5155 H   0  0  0  0  0  0  0  0  0  0  0  0
  -10.0259    1.7267   -7.1703 H   0  0  0  0  0  0  0  0  0  0  0  0
   -9.1523   -0.3936   -6.6264 H   0  0  0  0  0  0  0  0  0  0  0  0
   -8.7115   -1.1984   -2.3170 H   0  0  0  0  0  0  0  0  0  0  0  0
   -7.9590   -3.3934   -1.8763 H   0  0  0  0  0  0  0  0  0  0  0  0
   -7.4676   -1.6073   -6.3723 H   0  0  0  0  0  0  0  0  0  0  0  0
   -6.7948   -3.8223   -5.9271 H   0  0  0  0  0  0  0  0  0  0  0  0
  1  2  2  0      
  2  3  1  0      
  2  4  1  0      
  4  5  1  0      
  4 23  2  0      
  5  6  1  0      
  5 21  2  0      
  6  7  1  0      
  6 57  1  0      
  7  8  1  0      
  7 16  1  0      
  7 58  1  0      
  8  9  1  0      
  8 59  1  0      
  8 60  1  0      
  9 10  1  0      
 10 11  1  0      
 10 15  2  0      
 11 12  2  0      
 11 61  1  0      
 12 13  1  0      
 12 62  1  0      
 13 14  2  0      
 13 63  1  0      
 14 15  1  0      
 14 64  1  0      
 15 65  1  0      
 16 17  1  0      
 16 66  1  0      
 16 67  1  0      
 17 18  1  0      
 17 68  1  0      
 17 69  1  0      
 18 19  1  0      
 18 20  1  0      
 19 70  1  0      
 19 71  1  0      
 19 72  1  0      
 20 73  1  0      
 20 74  1  0      
 20 75  1  0      
 21 22  1  0      
 21 76  1  0      
 22 24  2  0      
 22 77  1  0      
 24 23  1  0      
 23 78  1  0      
 24 25  1  0      
 25 26  2  0      
 25 27  2  0      
 25 28  1  0      
 28 29  1  0      
 28 79  1  0      
 29 30  2  0      
 29 31  1  0      
 31 32  1  0      
 31 34  2  0      
 32 33  2  0      
 32 80  1  0      
 33 36  1  0      
 33 81  1  0      
 35 34  1  0      
 34 82  1  0      
 36 35  2  0      
 35 83  1  0      
 36 37  1  0      
 37 38  1  0      
 37 40  1  0      
 38 39  1  0      
 38 84  1  0      
 38 85  1  0      
 39 42  1  0      
 39 86  1  0      
 39 87  1  0      
 41 40  1  0      
 40 88  1  0      
 40 89  1  0      
 42 41  1  0      
 41 90  1  0      
 41 91  1  0      
 42 43  1  0      
 43 44  1  0      
 43 92  1  0      
 43 93  1  0      
 44 45  1  0      
 44 49  2  0      
 45 46  2  0      
 45 94  1  0      
 46 47  1  0      
 46 95  1  0      
 47 48  2  0      
 47 96  1  0      
 48 49  1  0      
 48 97  1  0      
 49 50  1  0      
 50 51  1  0      
 50 53  2  0      
 51 52  2  0      
 51 98  1  0      
 52 55  1  0      
 52 99  1  0      
 54 53  1  0      
 53100  1  0      
 55 54  2  0      
 54101  1  0      
 55 56  1  0      
M  CHG  2   2   1   3  -1
M  END
