
  Chem3D Core 15.010151510403D

 65 69  0  0  0  0  0  0  0  0999 V2000
   -0.4475    3.8834   -0.9985 C   0  0  0  0  0  0  0  0  0  0  0  0
   -0.3468    2.4198   -1.3266 C   0  0  0  0  0  0  0  0  0  0  0  0
   -1.3207    1.6614   -1.8481 C   0  0  0  0  0  0  0  0  0  0  0  0
   -0.8701    0.2759   -2.0280 S   0  0  0  0  0  0  0  0  0  0  0  0
    0.5081    0.3738   -1.5236 C   0  0  0  0  0  0  0  0  0  0  0  0
    0.7253    1.6413   -1.1376 C   0  0  0  0  0  0  0  0  0  0  0  0
    1.8244    2.0209   -0.6534 N   0  0  0  0  0  0  0  0  0  0  0  0
    2.7479    1.1649   -0.5241 C   0  0  0  0  0  0  0  0  0  0  0  0
    2.5730   -0.0417   -0.8765 N   0  0  0  0  0  0  0  0  0  0  0  0
    1.5091   -0.5298   -1.3837 C   0  0  0  0  0  0  0  0  0  0  0  0
    1.4968   -1.7788   -1.6842 N   0  0  0  0  0  0  0  0  0  0  0  0
    0.2975   -2.4544   -2.2335 C   0  0  0  0  0  0  0  0  0  0  0  0
    0.5468   -3.8889   -2.7022 C   0  0  0  0  0  0  0  0  0  0  0  0
    1.4419   -4.5557   -1.8523 O   0  0  0  0  0  0  0  0  0  0  0  0
    2.7180   -3.9786   -1.9351 C   0  0  0  0  0  0  0  0  0  0  0  0
    2.7145   -2.5705   -1.3455 C   0  0  0  0  0  0  0  0  0  0  0  0
    3.9370    1.5444   -0.0011 C   0  0  0  0  0  0  0  0  0  0  0  0
    4.9797    0.7116    0.1787 C   0  0  0  0  0  0  0  0  0  0  0  0
    6.0875    1.0768    0.6683 N   0  0  0  0  0  0  0  0  0  0  0  0
    6.2507    2.2859    1.0166 C   0  0  0  0  0  0  0  0  0  0  0  0
    5.3278    3.1470    0.8874 N   0  0  0  0  0  0  0  0  0  0  0  0
    4.2134    2.7998    0.3997 C   0  0  0  0  0  0  0  0  0  0  0  0
    7.3657    2.6432    1.5068 N   0  0  0  0  0  0  0  0  0  0  0  0
   -2.7106    2.1335   -2.2158 C   0  0  0  0  0  0  0  0  0  0  0  0
   -3.7253    1.5078   -1.3725 N   0  0  0  0  0  0  0  0  0  0  0  0
   -3.6192    1.9361    0.0160 C   0  0  0  0  0  0  0  0  0  0  0  0
   -4.6695    1.2339    0.8923 C   0  0  0  0  0  0  0  0  0  0  0  0
   -6.0059    1.5220    0.3768 N   0  0  0  0  0  0  0  0  0  0  0  0
   -6.1299    1.0806   -1.0112 C   0  0  0  0  0  0  0  0  0  0  0  0
   -5.0659    1.7792   -1.8726 C   0  0  0  0  0  0  0  0  0  0  0  0
   -7.0496    2.1027    1.0664 C   0  0  0  0  0  0  0  0  0  0  0  0
   -8.1417    2.2673    0.5777 O   0  0  0  0  0  0  0  0  0  0  0  0
   -6.8024    2.5559    2.5091 C   0  0  0  0  0  0  0  0  0  0  0  0
   -5.9029    3.7818    2.6509 C   0  0  0  0  0  0  0  0  0  0  0  0
   -6.3902    1.4936    3.3502 O   0  0  0  0  0  0  0  0  0  0  0  0
   -0.6048    4.4759   -1.9281 H   0  0  0  0  0  0  0  0  0  0  0  0
   -1.2985    4.0697   -0.3054 H   0  0  0  0  0  0  0  0  0  0  0  0
    0.4698    4.2729   -0.5046 H   0  0  0  0  0  0  0  0  0  0  0  0
   -0.0846   -1.9275   -3.1390 H   0  0  0  0  0  0  0  0  0  0  0  0
   -0.4834   -2.4930   -1.4355 H   0  0  0  0  0  0  0  0  0  0  0  0
    0.9444   -3.9160   -3.7434 H   0  0  0  0  0  0  0  0  0  0  0  0
   -0.4070   -4.4666   -2.7139 H   0  0  0  0  0  0  0  0  0  0  0  0
    3.4263   -4.6337   -1.3759 H   0  0  0  0  0  0  0  0  0  0  0  0
    3.0557   -3.9754   -2.9971 H   0  0  0  0  0  0  0  0  0  0  0  0
    2.7700   -2.6636   -0.2329 H   0  0  0  0  0  0  0  0  0  0  0  0
    3.6489   -2.0802   -1.7117 H   0  0  0  0  0  0  0  0  0  0  0  0
    4.9384   -0.3567   -0.0913 H   0  0  0  0  0  0  0  0  0  0  0  0
    3.4784    3.6190    0.3286 H   0  0  0  0  0  0  0  0  0  0  0  0
    7.5205    3.6389    1.8011 H   0  0  0  0  0  0  0  0  0  0  0  0
    8.1417    1.9457    1.6219 H   0  0  0  0  0  0  0  0  0  0  0  0
   -2.7864    3.2432   -2.1622 H   0  0  0  0  0  0  0  0  0  0  0  0
   -2.8795    1.8704   -3.2879 H   0  0  0  0  0  0  0  0  0  0  0  0
   -2.6096    1.6903    0.4234 H   0  0  0  0  0  0  0  0  0  0  0  0
   -3.7474    3.0417    0.0998 H   0  0  0  0  0  0  0  0  0  0  0  0
   -4.5013    0.1311    0.8733 H   0  0  0  0  0  0  0  0  0  0  0  0
   -4.5098    1.5328    1.9467 H   0  0  0  0  0  0  0  0  0  0  0  0
   -7.1345    1.2936   -1.4416 H   0  0  0  0  0  0  0  0  0  0  0  0
   -6.0014   -0.0264   -1.0614 H   0  0  0  0  0  0  0  0  0  0  0  0
   -5.2674    2.8773   -1.8889 H   0  0  0  0  0  0  0  0  0  0  0  0
   -5.1654    1.4082   -2.9214 H   0  0  0  0  0  0  0  0  0  0  0  0
   -7.7982    2.8529    2.9231 H   0  0  0  0  0  0  0  0  0  0  0  0
   -5.8447    4.1109    3.7140 H   0  0  0  0  0  0  0  0  0  0  0  0
   -6.3093    4.6337    2.0586 H   0  0  0  0  0  0  0  0  0  0  0  0
   -4.8614    3.6163    2.3049 H   0  0  0  0  0  0  0  0  0  0  0  0
   -7.1556    1.0679    3.7434 H   0  0  0  0  0  0  0  0  0  0  0  0
  1  2  1  0      
  1 36  1  0      
  1 37  1  0      
  1 38  1  0      
  3  2  2  0      
  2  6  1  0      
  4  3  1  0      
  3 24  1  0      
  5  4  1  0      
  5  6  2  0      
 10  5  1  0      
  6  7  1  0      
  8  7  2  0      
  8  9  1  0      
  8 17  1  0      
  9 10  2  0      
 10 11  1  0      
 11 12  1  0      
 11 16  1  0      
 12 13  1  0      
 12 39  1  0      
 12 40  1  0      
 13 14  1  0      
 13 41  1  0      
 13 42  1  0      
 14 15  1  0      
 15 16  1  0      
 15 43  1  0      
 15 44  1  0      
 16 45  1  0      
 16 46  1  0      
 17 18  2  0      
 22 17  1  0      
 18 19  1  0      
 18 47  1  0      
 19 20  2  0      
 20 21  1  0      
 20 23  1  0      
 22 21  2  0      
 22 48  1  0      
 23 49  1  0      
 23 50  1  0      
 24 25  1  0      
 24 51  1  0      
 24 52  1  0      
 25 26  1  0      
 25 30  1  0      
 26 27  1  0      
 26 53  1  0      
 26 54  1  0      
 27 28  1  0      
 27 55  1  0      
 27 56  1  0      
 28 29  1  0      
 28 31  1  0      
 29 30  1  0      
 29 57  1  0      
 29 58  1  0      
 30 59  1  0      
 30 60  1  0      
 31 32  2  0      
 31 33  1  0      
 33 34  1  0      
 33 35  1  0      
 33 61  1  0      
 34 62  1  0      
 34 63  1  0      
 34 64  1  0      
 35 65  1  0      
M  END
