
  Chem3D Core 15.010061615343D

  0  0  0     0  0              0 V3000
M  V30 BEGIN CTAB
M  V30 COUNTS 25 26 0 0 0
M  V30 BEGIN ATOM
M  V30 1 O 1.160691 -0.296769 2.571057 0
M  V30 2 C 0.383178 -1.267713 2.014570 0
M  V30 3 C 0.811469 -2.539421 1.891768 0
M  V30 4 Cl 2.394255 -2.976315 2.437903 0
M  V30 5 C 0.033782 -3.488866 1.344661 0
M  V30 6 C -1.197879 -3.180976 0.909586 0
M  V30 7 Cl -2.201108 -4.395855 0.200543 0
M  V30 8 C -1.645738 -1.921746 1.024871 0
M  V30 9 C -0.857899 -0.985637 1.576625 0
M  V30 10 S -1.493398 0.722027 1.684093 0
M  V30 11 C -0.160686 1.591325 0.789805 0
M  V30 12 C 0.476566 2.591756 1.417922 0
M  V30 13 C 1.476713 3.234197 0.796237 0
M  V30 14 Cl 2.306249 4.523247 1.593310 0
M  V30 15 C 1.830097 2.866712 -0.445171 0
M  V30 16 C 1.184343 1.860919 -1.059141 0
M  V30 17 Cl 1.672114 1.415542 -2.658551 0
M  V30 18 C 0.179007 1.199919 -0.452407 0
M  V30 19 O -0.486255 0.181078 -1.065827 0
M  V30 20 H 0.646124 0.522437 2.658551 0
M  V30 21 H 0.405287 -4.523247 1.250056 0
M  V30 22 H -2.653051 -1.656730 0.662876 0
M  V30 23 H 0.184153 2.880486 2.441183 0
M  V30 24 H 2.653051 3.392255 -0.958457 0
M  V30 25 H -1.232373 -0.101203 -0.511614 0
M  V30 END ATOM
M  V30 BEGIN BOND
M  V30 1 1 1 2
M  V30 2 1 1 20
M  V30 3 1 2 3
M  V30 4 2 2 9
M  V30 5 1 3 4
M  V30 6 2 3 5
M  V30 7 1 5 6
M  V30 8 1 5 21
M  V30 9 1 6 7
M  V30 10 2 6 8
M  V30 11 1 8 9
M  V30 12 1 8 22
M  V30 13 1 9 10
M  V30 14 1 10 11
M  V30 15 1 11 12
M  V30 16 2 11 18
M  V30 17 2 12 13
M  V30 18 1 12 23
M  V30 19 1 13 14
M  V30 20 1 13 15
M  V30 21 2 15 16
M  V30 22 1 15 24
M  V30 23 1 16 17
M  V30 24 1 16 18
M  V30 25 1 18 19
M  V30 26 1 19 25
M  V30 END BOND
M  V30 END CTAB
M  END
