
  Chem3D Core 15.009091608563D

  0  0  0     0  0              0 V3000
M  V30 BEGIN CTAB
M  V30 COUNTS 72 74 0 0 0
M  V30 BEGIN ATOM
M  V30 1 O -2.601724 -5.778473 2.262149 0
M  V30 2 C -0.958464 1.904110 -0.626754 0
M  V30 3 C -1.009443 0.392067 -0.951808 0
M  V30 4 C 0.577148 2.148677 -0.632034 0
M  V30 5 C -2.421155 -0.152403 -0.920837 0
M  V30 6 C 0.066513 -0.222973 -0.050989 0
M  V30 7 C 1.159607 0.859281 0.001158 0
M  V30 8 C -1.752143 2.667424 -1.715129 0
M  V30 9 C 1.140815 3.442618 0.007826 0
M  V30 10 C -1.559451 2.193943 0.768124 0
M  V30 11 C -3.416049 0.727057 -1.652956 0
M  V30 12 C -2.720349 1.784200 -2.523436 0
M  V30 13 C -2.745257 -1.306766 -0.306714 0
M  V30 14 C 2.684178 3.484577 -0.109891 0
M  V30 15 C 0.532799 4.714546 -0.609475 0
M  V30 16 C -3.985645 -1.822322 -0.207802 0
M  V30 17 C -4.333260 -2.977419 0.408169 0
M  V30 18 C 3.359450 4.639636 0.651775 0
M  V30 19 C -5.622886 -3.391279 0.509346 0
M  V30 20 C -3.219761 -3.819946 1.021159 0
M  V30 21 C 4.892524 4.507123 0.650901 0
M  V30 22 C -3.611167 -5.228283 1.449255 0
M  V30 23 C -5.988544 -4.667321 1.254736 0
M  V30 24 C -4.913982 -5.163742 2.222909 0
M  V30 25 C -6.683237 -2.744491 -0.016502 0
M  V30 26 C 5.628636 5.704475 1.285581 0
M  V30 27 C 5.303214 5.868518 2.779635 0
M  V30 28 C 7.148965 5.550444 1.098251 0
M  V30 29 H -0.642657 0.238349 -1.998303 0
M  V30 30 H 0.897918 2.153989 -1.704858 0
M  V30 31 H -2.799956 -6.702351 2.432876 0
M  V30 32 H 0.446095 -1.195572 -0.440330 0
M  V30 33 H -0.329327 -0.399365 0.976131 0
M  V30 34 H 2.069677 0.524811 -0.550434 0
M  V30 35 H 1.452538 1.027100 1.064037 0
M  V30 36 H -2.344935 3.485996 -1.244270 0
M  V30 37 H -1.061714 3.163067 -2.436399 0
M  V30 38 H 0.886406 3.430889 1.096111 0
M  V30 39 H -2.617305 1.861869 0.845237 0
M  V30 40 H -1.003633 1.693501 1.589813 0
M  V30 41 H -1.554066 3.280152 1.004949 0
M  V30 42 H -4.067091 0.107847 -2.313963 0
M  V30 43 H -4.065873 1.241222 -0.906812 0
M  V30 44 H -2.167737 1.271073 -3.346793 0
M  V30 45 H -3.482911 2.424434 -3.029133 0
M  V30 46 H -1.907808 -1.846800 0.154744 0
M  V30 47 H 3.114645 2.539285 0.294373 0
M  V30 48 H 2.970901 3.531242 -1.186860 0
M  V30 49 H 0.901342 5.638596 -0.113378 0
M  V30 50 H -0.570411 4.753310 -0.495044 0
M  V30 51 H 0.772290 4.789936 -1.694069 0
M  V30 52 H -4.768533 -1.205351 -0.664610 0
M  V30 53 H 3.092632 5.616544 0.186561 0
M  V30 54 H 2.981127 4.644231 1.700409 0
M  V30 55 H -2.835460 -3.268516 1.913247 0
M  V30 56 H -2.382553 -3.948075 0.293877 0
M  V30 57 H 5.187496 3.571657 1.182192 0
M  V30 58 H 5.231238 4.401303 -0.407864 0
M  V30 59 H -3.719132 -5.901300 0.566461 0
M  V30 60 H -6.195866 -5.456580 0.492348 0
M  V30 61 H -6.927204 -4.524067 1.842633 0
M  V30 62 H -5.185310 -6.168164 2.626112 0
M  V30 63 H -4.814892 -4.466687 3.088340 0
M  V30 64 H -7.699013 -3.151883 0.104043 0
M  V30 65 H -6.656704 -1.812797 -0.592522 0
M  V30 66 H 5.312633 6.637111 0.752980 0
M  V30 67 H 5.889285 6.702351 3.229002 0
M  V30 68 H 4.229715 6.107953 2.947791 0
M  V30 69 H 5.543319 4.940781 3.346793 0
M  V30 70 H 7.699013 6.425003 1.514707 0
M  V30 71 H 7.419861 5.473818 0.020528 0
M  V30 72 H 7.525626 4.636051 1.610414 0
M  V30 END ATOM
M  V30 BEGIN BOND
M  V30 1 1 22 1
M  V30 2 1 1 31
M  V30 3 1 2 3
M  V30 4 1 2 4
M  V30 5 1 2 8
M  V30 6 1 2 10
M  V30 7 1 3 5
M  V30 8 1 3 6
M  V30 9 1 3 29
M  V30 10 1 4 7
M  V30 11 1 4 9
M  V30 12 1 4 30
M  V30 13 1 5 11
M  V30 14 2 5 13
M  V30 15 1 6 7
M  V30 16 1 6 32
M  V30 17 1 6 33
M  V30 18 1 7 34
M  V30 19 1 7 35
M  V30 20 1 8 12
M  V30 21 1 8 36
M  V30 22 1 8 37
M  V30 23 1 9 14
M  V30 24 1 9 15
M  V30 25 1 9 38
M  V30 26 1 10 39
M  V30 27 1 10 40
M  V30 28 1 10 41
M  V30 29 1 11 12
M  V30 30 1 11 42
M  V30 31 1 11 43
M  V30 32 1 12 44
M  V30 33 1 12 45
M  V30 34 1 13 16
M  V30 35 1 13 46
M  V30 36 1 14 18
M  V30 37 1 14 47
M  V30 38 1 14 48
M  V30 39 1 15 49
M  V30 40 1 15 50
M  V30 41 1 15 51
M  V30 42 2 16 17
M  V30 43 1 16 52
M  V30 44 1 17 19
M  V30 45 1 17 20
M  V30 46 1 18 21
M  V30 47 1 18 53
M  V30 48 1 18 54
M  V30 49 1 19 23
M  V30 50 2 19 25
M  V30 51 1 20 22
M  V30 52 1 20 55
M  V30 53 1 20 56
M  V30 54 1 21 26
M  V30 55 1 21 57
M  V30 56 1 21 58
M  V30 57 1 22 24
M  V30 58 1 22 59
M  V30 59 1 23 24
M  V30 60 1 23 60
M  V30 61 1 23 61
M  V30 62 1 24 62
M  V30 63 1 24 63
M  V30 64 1 25 64
M  V30 65 1 25 65
M  V30 66 1 26 27
M  V30 67 1 26 28
M  V30 68 1 26 66
M  V30 69 1 27 67
M  V30 70 1 27 68
M  V30 71 1 27 69
M  V30 72 1 28 70
M  V30 73 1 28 71
M  V30 74 1 28 72
M  V30 END BOND
M  V30 END CTAB
M  END
