
  Chem3D Core 15.001271611493D

 55 58  0  0  0  0  0  0  0  0999 V2000
    0.1251    3.5961   -2.8477 O   0  0  0  0  0  0  0  0  0  0  0  0
   -0.9465    3.4536   -1.8529 S   0  0  0  0  0  0  0  0  0  0  0  0
   -2.5376    4.1068   -2.3487 C   0  0  0  0  0  0  0  0  0  0  0  0
   -3.3984    3.3805   -3.0878 C   0  0  0  0  0  0  0  0  0  0  0  0
   -3.0909    2.1493   -3.4626 F   0  0  0  0  0  0  0  0  0  0  0  0
   -4.5832    3.8985   -3.4481 C   0  0  0  0  0  0  0  0  0  0  0  0
   -4.9193    5.1436   -3.0803 C   0  0  0  0  0  0  0  0  0  0  0  0
   -4.0628    5.8728   -2.3504 C   0  0  0  0  0  0  0  0  0  0  0  0
   -2.8773    5.3590   -1.9870 C   0  0  0  0  0  0  0  0  0  0  0  0
   -2.0391    6.0919   -1.2709 F   0  0  0  0  0  0  0  0  0  0  0  0
   -0.7915    1.7623   -1.9980 N   0  0  0  0  0  0  0  0  0  0  0  0
   -1.1053    0.9474   -1.0703 C   0  0  0  0  0  0  0  0  0  0  0  0
   -2.2769    0.9937   -0.4163 C   0  0  0  0  0  0  0  0  0  0  0  0
   -2.5495    0.0662    0.5102 C   0  0  0  0  0  0  0  0  0  0  0  0
   -1.6439   -0.8774    0.8073 C   0  0  0  0  0  0  0  0  0  0  0  0
   -0.4268   -0.9128    0.2240 C   0  0  0  0  0  0  0  0  0  0  0  0
    0.4698   -1.8624    0.5845 C   0  0  0  0  0  0  0  0  0  0  0  0
    1.8253   -1.8951    0.5330 C   0  0  0  0  0  0  0  0  0  0  0  0
    2.7164   -0.8898    0.3428 C   0  0  0  0  0  0  0  0  0  0  0  0
    2.2966    0.3079    0.3426 N   0  0  0  0  0  0  0  0  0  0  0  0
    3.0479    1.3188    0.1863 C   0  0  0  0  0  0  0  0  0  0  0  0
    2.5184    2.4727    0.1883 N   0  0  0  0  0  0  0  0  0  0  0  0
    4.3014    1.2094    0.0317 N   0  0  0  0  0  0  0  0  0  0  0  0
    4.8008    0.0501    0.0417 C   0  0  0  0  0  0  0  0  0  0  0  0
    4.0485   -1.0475    0.1998 C   0  0  0  0  0  0  0  0  0  0  0  0
    2.2985   -3.2394    0.9106 S   0  0  0  0  0  0  0  0  0  0  0  0
    1.0002   -3.7196    1.3696 C   0  0  0  0  0  0  0  0  0  0  0  0
    0.6867   -5.0628    2.0102 C   0  0  0  0  0  0  0  0  0  0  0  0
    1.9405   -5.9292    2.2632 C   0  0  0  0  0  0  0  0  0  0  0  0
   -0.0099   -4.8163    3.3660 C   0  0  0  0  0  0  0  0  0  0  0  0
   -0.2668   -5.8458    1.0825 C   0  0  0  0  0  0  0  0  0  0  0  0
    0.0533   -2.9181    1.1485 N   0  0  0  0  0  0  0  0  0  0  0  0
   -0.2103   -0.0123   -0.7605 C   0  0  0  0  0  0  0  0  0  0  0  0
    0.8651   -0.0974   -1.5334 F   0  0  0  0  0  0  0  0  0  0  0  0
   -0.6386    3.4523   -0.4195 O   0  0  0  0  0  0  0  0  0  0  0  0
   -5.2847    3.2972   -4.0501 H   0  0  0  0  0  0  0  0  0  0  0  0
   -5.8932    5.5663   -3.3785 H   0  0  0  0  0  0  0  0  0  0  0  0
   -4.3331    6.8985   -2.0491 H   0  0  0  0  0  0  0  0  0  0  0  0
    0.1328    1.4914   -2.4222 H   0  0  0  0  0  0  0  0  0  0  0  0
   -3.0403    1.7543   -0.6470 H   0  0  0  0  0  0  0  0  0  0  0  0
   -3.5216    0.0842    1.0321 H   0  0  0  0  0  0  0  0  0  0  0  0
   -1.9332   -1.5934    1.5956 H   0  0  0  0  0  0  0  0  0  0  0  0
    3.1101    3.3300    0.0601 H   0  0  0  0  0  0  0  0  0  0  0  0
    1.4812    2.5817    0.3113 H   0  0  0  0  0  0  0  0  0  0  0  0
    5.8932   -0.0246   -0.0896 H   0  0  0  0  0  0  0  0  0  0  0  0
    4.5570   -2.0246    0.1910 H   0  0  0  0  0  0  0  0  0  0  0  0
    1.6707   -6.8985    2.7405 H   0  0  0  0  0  0  0  0  0  0  0  0
    2.4722   -6.1759    1.3163 H   0  0  0  0  0  0  0  0  0  0  0  0
    2.6606   -5.4229    2.9454 H   0  0  0  0  0  0  0  0  0  0  0  0
   -0.2562   -5.7750    3.8760 H   0  0  0  0  0  0  0  0  0  0  0  0
   -0.9649   -4.2557    3.2501 H   0  0  0  0  0  0  0  0  0  0  0  0
    0.6442   -4.2289    4.0501 H   0  0  0  0  0  0  0  0  0  0  0  0
   -1.2240   -5.3025    0.9141 H   0  0  0  0  0  0  0  0  0  0  0  0
    0.1996   -6.0219    0.0864 H   0  0  0  0  0  0  0  0  0  0  0  0
   -0.5267   -6.8392    1.5132 H   0  0  0  0  0  0  0  0  0  0  0  0
  1  2  2  0      
  2  3  1  0      
  2 11  1  0      
  2 35  2  0      
  3  4  1  0      
  3  9  2  0      
  4  5  1  0      
  4  6  2  0      
  6  7  1  0      
  6 36  1  0      
  7  8  2  0      
  7 37  1  0      
  8  9  1  0      
  8 38  1  0      
  9 10  1  0      
 11 12  1  0      
 11 39  1  0      
 12 13  1  0      
 12 33  2  0      
 13 14  2  0      
 13 40  1  0      
 14 15  1  0      
 14 41  1  0      
 15 16  2  0      
 15 42  1  0      
 16 17  1  0      
 16 33  1  0      
 17 18  2  0      
 17 32  1  0      
 18 19  1  0      
 18 26  1  0      
 19 20  1  0      
 25 19  2  0      
 20 21  2  0      
 21 22  1  0      
 21 23  1  0      
 22 43  1  0      
 22 44  1  0      
 24 23  2  0      
 24 25  1  0      
 24 45  1  0      
 25 46  1  0      
 26 27  1  0      
 27 28  1  0      
 27 32  2  0      
 28 29  1  0      
 28 30  1  0      
 28 31  1  0      
 29 47  1  0      
 29 48  1  0      
 29 49  1  0      
 30 50  1  0      
 30 51  1  0      
 30 52  1  0      
 31 53  1  0      
 31 54  1  0      
 31 55  1  0      
 33 34  1  0      
M  END
