
  Chem3D Core 15.002041616033D

111116  0  0  0  0  0  0  0  0999 V2000
    3.1527    0.0999   -1.4581 O   0  0  0  0  0  0  0  0  0  0  0  0
    3.6220    2.3757   -3.4821 O   0  0  0  0  0  0  0  0  0  0  0  0
    5.8597   -0.3934   -0.7938 O   0  0  0  0  0  0  0  0  0  0  0  0
    5.9107   -1.0610    2.0055 O   0  0  0  0  0  0  0  0  0  0  0  0
    5.2807    4.2823   -2.4806 O   0  0  0  0  0  0  0  0  0  0  0  0
    6.3395    4.4266    1.3445 O   0  0  0  0  0  0  0  0  0  0  0  0
    4.5772    4.0913    3.3642 O   0  0  0  0  0  0  0  0  0  0  0  0
    1.3354   -0.0887    1.0925 O   0  0  0  0  0  0  0  0  0  0  0  0
    2.0423   -1.7995   -1.8298 O   0  0  0  0  0  0  0  0  0  0  0  0
    5.3001   -2.4273   -0.0093 O   0  0  0  0  0  0  0  0  0  0  0  0
   -0.4304   -0.0920    2.5628 O   0  0  0  0  0  0  0  0  0  0  0  0
   -0.0919   -0.5872   -0.9666 O   0  0  0  0  0  0  0  0  0  0  0  0
   -4.8007    0.7511    2.4435 O   0  0  0  0  0  0  0  0  0  0  0  0
   -4.7411    1.1010    0.2045 O   0  0  0  0  0  0  0  0  0  0  0  0
   -2.8787    0.3981    1.2319 N   0  0  0  0  0  0  0  0  0  0  0  0
    4.6591    1.6447   -0.4080 C   0  0  0  0  0  0  0  0  0  0  0  0
    3.8789    1.2635   -1.6908 C   0  0  0  0  0  0  0  0  0  0  0  0
    5.3783    3.0391   -0.3669 C   0  0  0  0  0  0  0  0  0  0  0  0
    5.4458    0.4685    0.2424 C   0  0  0  0  0  0  0  0  0  0  0  0
    4.9683   -0.0840    1.6208 C   0  0  0  0  0  0  0  0  0  0  0  0
    3.0011    2.4039   -2.2168 C   0  0  0  0  0  0  0  0  0  0  0  0
    5.0201    0.9850    2.7513 C   0  0  0  0  0  0  0  0  0  0  0  0
    4.6360    4.0883   -1.2397 C   0  0  0  0  0  0  0  0  0  0  0  0
    5.4340    3.6669    1.0645 C   0  0  0  0  0  0  0  0  0  0  0  0
    4.5467    1.3905   -3.0557 C   0  0  0  0  0  0  0  0  0  0  0  0
    3.9447    2.0081    2.4104 C   0  0  0  0  0  0  0  0  0  0  0  0
    3.1759    3.7451   -1.5188 C   0  0  0  0  0  0  0  0  0  0  0  0
    4.3365    3.4405    2.1189 C   0  0  0  0  0  0  0  0  0  0  0  0
    3.5636   -0.7226    1.6304 C   0  0  0  0  0  0  0  0  0  0  0  0
    6.8638    2.9386   -0.8251 C   0  0  0  0  0  0  0  0  0  0  0  0
    2.6711    1.5957    2.2356 C   0  0  0  0  0  0  0  0  0  0  0  0
    2.3444    0.1211    2.0645 C   0  0  0  0  0  0  0  0  0  0  0  0
    4.6708    0.3976    4.1519 C   0  0  0  0  0  0  0  0  0  0  0  0
    6.4385    1.5625    3.0050 C   0  0  0  0  0  0  0  0  0  0  0  0
    2.4562   -0.7469   -2.2732 C   0  0  0  0  0  0  0  0  0  0  0  0
    5.8366   -1.7625   -0.8681 C   0  0  0  0  0  0  0  0  0  0  0  0
    1.5042    2.5430    2.0838 C   0  0  0  0  0  0  0  0  0  0  0  0
    6.4348   -2.3893   -1.9294 C   0  0  0  0  0  0  0  0  0  0  0  0
    2.1184   -0.3649   -3.7030 C   0  0  0  0  0  0  0  0  0  0  0  0
    0.0252   -0.2074    1.4470 C   0  0  0  0  0  0  0  0  0  0  0  0
    7.0299   -1.6599   -2.8945 C   0  0  0  0  0  0  0  0  0  0  0  0
    6.4472   -3.7319   -2.0522 C   0  0  0  0  0  0  0  0  0  0  0  0
   -0.8437   -0.5249    0.2308 C   0  0  0  0  0  0  0  0  0  0  0  0
   -2.0141    0.4520    0.0474 C   0  0  0  0  0  0  0  0  0  0  0  0
    7.6202   -2.2498   -3.9461 C   0  0  0  0  0  0  0  0  0  0  0  0
    7.0375   -4.3250   -3.1025 C   0  0  0  0  0  0  0  0  0  0  0  0
    7.6266   -3.5860   -4.0534 C   0  0  0  0  0  0  0  0  0  0  0  0
   -1.5345    1.8732   -0.1908 C   0  0  0  0  0  0  0  0  0  0  0  0
   -1.5534    2.8049    0.7810 C   0  0  0  0  0  0  0  0  0  0  0  0
   -1.0770    2.2397   -1.4028 C   0  0  0  0  0  0  0  0  0  0  0  0
   -4.1976    0.7513    1.2245 C   0  0  0  0  0  0  0  0  0  0  0  0
   -1.1258    4.0569    0.5531 C   0  0  0  0  0  0  0  0  0  0  0  0
   -0.6400    3.4865   -1.6378 C   0  0  0  0  0  0  0  0  0  0  0  0
   -0.6617    4.4005   -0.6571 C   0  0  0  0  0  0  0  0  0  0  0  0
   -5.9410    1.5092    2.7143 C   0  0  0  0  0  0  0  0  0  0  0  0
   -6.0839    1.5140    4.2460 C   0  0  0  0  0  0  0  0  0  0  0  0
   -5.7926    2.9620    2.2409 C   0  0  0  0  0  0  0  0  0  0  0  0
   -7.1865    0.8479    2.1113 C   0  0  0  0  0  0  0  0  0  0  0  0
    3.7529    1.7888    0.2124 H   0  0  0  0  0  0  0  0  0  0  0  0
    5.6324   -1.9385    1.7420 H   0  0  0  0  0  0  0  0  0  0  0  0
    4.6379    4.4114   -3.1818 H   0  0  0  0  0  0  0  0  0  0  0  0
    3.9632    3.7405    4.0142 H   0  0  0  0  0  0  0  0  0  0  0  0
    0.4986   -1.3444   -0.9555 H   0  0  0  0  0  0  0  0  0  0  0  0
   -2.4568    0.2024    2.1387 H   0  0  0  0  0  0  0  0  0  0  0  0
    6.4221    0.9068    0.5430 H   0  0  0  0  0  0  0  0  0  0  0  0
    1.9230    2.1490   -2.3065 H   0  0  0  0  0  0  0  0  0  0  0  0
    4.6667    5.0916   -0.7494 H   0  0  0  0  0  0  0  0  0  0  0  0
    4.5306    0.4975   -3.7053 H   0  0  0  0  0  0  0  0  0  0  0  0
    5.5688    1.8073   -3.0560 H   0  0  0  0  0  0  0  0  0  0  0  0
    2.7043    4.5426   -2.1410 H   0  0  0  0  0  0  0  0  0  0  0  0
    2.6100    3.7326   -0.5589 H   0  0  0  0  0  0  0  0  0  0  0  0
    3.5037    4.0118    1.6542 H   0  0  0  0  0  0  0  0  0  0  0  0
    3.3652   -1.1285    0.6171 H   0  0  0  0  0  0  0  0  0  0  0  0
    3.5784   -1.6328    2.2776 H   0  0  0  0  0  0  0  0  0  0  0  0
    7.0037    2.2820   -1.7075 H   0  0  0  0  0  0  0  0  0  0  0  0
    7.2947    3.9309   -1.0879 H   0  0  0  0  0  0  0  0  0  0  0  0
    7.5479    2.5338   -0.0489 H   0  0  0  0  0  0  0  0  0  0  0  0
    1.9606   -0.2463    3.0430 H   0  0  0  0  0  0  0  0  0  0  0  0
    4.6076    1.2059    4.9164 H   0  0  0  0  0  0  0  0  0  0  0  0
    5.4364   -0.3266    4.5097 H   0  0  0  0  0  0  0  0  0  0  0  0
    3.7089   -0.1450    4.2145 H   0  0  0  0  0  0  0  0  0  0  0  0
    6.9065    2.0802    2.1492 H   0  0  0  0  0  0  0  0  0  0  0  0
    6.4468    2.2932    3.8440 H   0  0  0  0  0  0  0  0  0  0  0  0
    7.1622    0.7644    3.2841 H   0  0  0  0  0  0  0  0  0  0  0  0
    1.6794    3.5624    2.4856 H   0  0  0  0  0  0  0  0  0  0  0  0
    1.2167    2.6227    1.0127 H   0  0  0  0  0  0  0  0  0  0  0  0
    0.6367    2.1810    2.6755 H   0  0  0  0  0  0  0  0  0  0  0  0
    1.7808    0.6802   -3.8342 H   0  0  0  0  0  0  0  0  0  0  0  0
    2.9369   -0.6230   -4.4081 H   0  0  0  0  0  0  0  0  0  0  0  0
    1.2466   -0.9709   -4.0407 H   0  0  0  0  0  0  0  0  0  0  0  0
    7.0549   -0.5578   -2.8629 H   0  0  0  0  0  0  0  0  0  0  0  0
    5.9796   -4.3961   -1.3066 H   0  0  0  0  0  0  0  0  0  0  0  0
   -1.2397   -1.5553    0.3931 H   0  0  0  0  0  0  0  0  0  0  0  0
   -2.5994    0.1088   -0.8404 H   0  0  0  0  0  0  0  0  0  0  0  0
    8.1014   -1.6360   -4.7264 H   0  0  0  0  0  0  0  0  0  0  0  0
    7.0390   -5.4250   -3.1873 H   0  0  0  0  0  0  0  0  0  0  0  0
    8.1108   -4.0726   -4.9164 H   0  0  0  0  0  0  0  0  0  0  0  0
   -1.9120    2.5598    1.7936 H   0  0  0  0  0  0  0  0  0  0  0  0
   -1.0527    1.5093   -2.2282 H   0  0  0  0  0  0  0  0  0  0  0  0
   -1.1436    4.8023    1.3659 H   0  0  0  0  0  0  0  0  0  0  0  0
   -0.2617    3.7609   -2.6369 H   0  0  0  0  0  0  0  0  0  0  0  0
   -0.3000    5.4250   -0.8443 H   0  0  0  0  0  0  0  0  0  0  0  0
   -6.9886    2.0741    4.5741 H   0  0  0  0  0  0  0  0  0  0  0  0
   -6.1695    0.4783    4.6473 H   0  0  0  0  0  0  0  0  0  0  0  0
   -5.2016    1.9881    4.7336 H   0  0  0  0  0  0  0  0  0  0  0  0
   -6.6118    3.5954    2.6505 H   0  0  0  0  0  0  0  0  0  0  0  0
   -5.8464    3.0797    1.1376 H   0  0  0  0  0  0  0  0  0  0  0  0
   -4.8281    3.4010    2.5843 H   0  0  0  0  0  0  0  0  0  0  0  0
   -7.2837   -0.2104    2.4443 H   0  0  0  0  0  0  0  0  0  0  0  0
   -8.1108    1.3845    2.4240 H   0  0  0  0  0  0  0  0  0  0  0  0
   -7.1813    0.8474    1.0000 H   0  0  0  0  0  0  0  0  0  0  0  0
 17  1  1  0      
  1 35  1  0      
 21  2  1  0      
  2 25  1  0      
 19  3  1  0      
  3 36  1  0      
 20  4  1  0      
  4 60  1  0      
 23  5  1  0      
  5 61  1  0      
  6 24  2  0      
 28  7  1  0      
  7 62  1  0      
 32  8  1  0      
  8 40  1  0      
  9 35  2  0      
 10 36  2  0      
 11 40  2  0      
 43 12  1  0      
 12 63  1  0      
 13 51  1  0      
 13 55  1  0      
 14 51  2  0      
 44 15  1  0      
 15 51  1  0      
 15 64  1  0      
 16 17  1  0      
 16 18  1  0      
 16 19  1  0      
 16 59  1  0      
 17 21  1  0      
 17 25  1  0      
 18 23  1  0      
 18 24  1  0      
 18 30  1  0      
 19 20  1  0      
 19 65  1  0      
 20 22  1  0      
 20 29  1  0      
 21 27  1  0      
 21 66  1  0      
 22 26  1  0      
 22 33  1  0      
 22 34  1  0      
 23 27  1  0      
 23 67  1  0      
 24 28  1  0      
 25 68  1  0      
 25 69  1  0      
 26 28  1  0      
 26 31  2  0      
 27 70  1  0      
 27 71  1  0      
 28 72  1  0      
 29 32  1  0      
 29 73  1  0      
 29 74  1  0      
 30 75  1  0      
 30 76  1  0      
 30 77  1  0      
 31 32  1  0      
 31 37  1  0      
 32 78  1  0      
 33 79  1  0      
 33 80  1  0      
 33 81  1  0      
 34 82  1  0      
 34 83  1  0      
 34 84  1  0      
 35 39  1  0      
 36 38  1  0      
 37 85  1  0      
 37 86  1  0      
 37 87  1  0      
 38 41  1  0      
 38 42  2  0      
 39 88  1  0      
 39 89  1  0      
 39 90  1  0      
 40 43  1  0      
 41 45  2  0      
 41 91  1  0      
 46 42  1  0      
 42 92  1  0      
 43 44  1  0      
 43 93  1  0      
 44 48  1  0      
 44 94  1  0      
 45 47  1  0      
 45 95  1  0      
 47 46  2  0      
 46 96  1  0      
 47 97  1  0      
 48 49  1  0      
 48 50  2  0      
 49 52  2  0      
 49 98  1  0      
 53 50  1  0      
 50 99  1  0      
 52 54  1  0      
 52100  1  0      
 54 53  2  0      
 53101  1  0      
 54102  1  0      
 55 56  1  0      
 55 57  1  0      
 55 58  1  0      
 56103  1  0      
 56104  1  0      
 56105  1  0      
 57106  1  0      
 57107  1  0      
 57108  1  0      
 58109  1  0      
 58110  1  0      
 58111  1  0      
M  END
