
  Chem3D Core 14.008171510153D

 48 50  0  0  0  0  0  0  0  0999 V2000
   -1.4591    1.4007    1.9454 C   0  0  0  0  0  0  0  0  0  0  0  0
   -0.6403    1.2589    0.6997 N   0  0  0  0  0  0  0  0  0  0  0  0
   -1.5239    1.3197   -0.2097 C   0  0  0  0  0  0  0  0  0  0  0  0
   -2.5980    0.7055    0.0899 N   0  0  0  0  0  0  0  0  0  0  0  0
   -2.8209    1.1487    1.2612 C   0  0  0  0  0  0  0  0  0  0  0  0
   -3.2607   -0.1268   -0.6245 C   0  0  0  0  0  0  0  0  0  0  0  0
   -2.8383   -0.4863   -1.8540 C   0  0  0  0  0  0  0  0  0  0  0  0
   -4.3865   -0.7404   -0.2002 C   0  0  0  0  0  0  0  0  0  0  0  0
   -5.0981   -1.6177   -0.9357 C   0  0  0  0  0  0  0  0  0  0  0  0
   -4.6484   -1.9236   -2.1686 C   0  0  0  0  0  0  0  0  0  0  0  0
   -3.5167   -1.3577   -2.6147 C   0  0  0  0  0  0  0  0  0  0  0  0
   -3.8939    1.3764    1.7761 O   0  0  0  0  0  0  0  0  0  0  0  0
   -5.2585   -2.7721   -2.9720 C   0  0  0  0  0  0  0  0  0  0  0  0
   -5.7837   -3.5163   -3.6884 N   0  0  0  0  0  0  0  0  0  0  0  0
   -6.3526   -2.2643   -0.3734 C   0  0  0  0  0  0  0  0  0  0  0  0
   -6.2429   -3.5821   -0.4375 F   0  0  0  0  0  0  0  0  0  0  0  0
   -6.6263   -1.9464    0.8819 F   0  0  0  0  0  0  0  0  0  0  0  0
   -7.3957   -1.9235   -1.1145 F   0  0  0  0  0  0  0  0  0  0  0  0
   -1.4783    2.4381   -1.3333 S   0  0  0  0  0  0  0  0  0  0  0  0
   -1.3736    0.2747    2.9955 C   0  0  0  0  0  0  0  0  0  0  0  0
   -1.4489    2.8042    2.5676 C   0  0  0  0  0  0  0  0  0  0  0  0
    0.6247    1.0858    0.6941 C   0  0  0  0  0  0  0  0  0  0  0  0
    1.2653    0.8273   -0.4633 C   0  0  0  0  0  0  0  0  0  0  0  0
    2.5918    0.6305   -0.5568 C   0  0  0  0  0  0  0  0  0  0  0  0
    3.3794    0.6854    0.5388 C   0  0  0  0  0  0  0  0  0  0  0  0
    2.7524    0.9488    1.7020 C   0  0  0  0  0  0  0  0  0  0  0  0
    1.4251    1.1401    1.7731 C   0  0  0  0  0  0  0  0  0  0  0  0
    4.7333    0.4919    0.4723 C   0  0  0  0  0  0  0  0  0  0  0  0
    5.4157    0.5711    1.6566 N   0  0  0  0  0  0  0  0  0  0  0  0
    6.8648    0.3861    1.7403 C   0  0  0  0  0  0  0  0  0  0  0  0
    5.3457    0.2587   -0.5445 O   0  0  0  0  0  0  0  0  0  0  0  0
    3.0661    0.3729   -1.7677 F   0  0  0  0  0  0  0  0  0  0  0  0
   -1.9073   -0.0919   -2.2921 H   0  0  0  0  0  0  0  0  0  0  0  0
   -4.7706   -0.5461    0.8099 H   0  0  0  0  0  0  0  0  0  0  0  0
   -3.1236   -1.6112   -3.6154 H   0  0  0  0  0  0  0  0  0  0  0  0
   -2.2452    0.3045    3.6884 H   0  0  0  0  0  0  0  0  0  0  0  0
   -1.3653   -0.7274    2.5086 H   0  0  0  0  0  0  0  0  0  0  0  0
   -0.4832    0.3337    3.6536 H   0  0  0  0  0  0  0  0  0  0  0  0
   -0.4488    3.0659    2.9758 H   0  0  0  0  0  0  0  0  0  0  0  0
   -1.7117    3.5821    1.8153 H   0  0  0  0  0  0  0  0  0  0  0  0
   -2.1764    2.8833    3.4066 H   0  0  0  0  0  0  0  0  0  0  0  0
    0.7042    0.7412   -1.4086 H   0  0  0  0  0  0  0  0  0  0  0  0
    3.2890    1.0321    2.6601 H   0  0  0  0  0  0  0  0  0  0  0  0
    1.0290    1.3766    2.7691 H   0  0  0  0  0  0  0  0  0  0  0  0
    4.9095    0.7643    2.5169 H   0  0  0  0  0  0  0  0  0  0  0  0
    7.3957    1.1567    1.1368 H   0  0  0  0  0  0  0  0  0  0  0  0
    7.1828    0.4948    2.8015 H   0  0  0  0  0  0  0  0  0  0  0  0
    7.1529   -0.6318    1.3929 H   0  0  0  0  0  0  0  0  0  0  0  0
  2  1  1  0      
  1  5  1  0      
  1 20  1  0      
  1 21  1  0      
  3  2  1  0      
  2 22  1  0      
  3  4  1  0      
  3 19  2  0      
  5  4  1  0      
  4  6  1  0      
  5 12  2  0      
  6  7  1  0      
  6  8  2  0      
  7 11  2  0      
  7 33  1  0      
  9  8  1  0      
  8 34  1  0      
 10  9  2  0      
  9 15  1  0      
 11 10  1  0      
 10 13  1  0      
 11 35  1  0      
 13 14  3  0      
 15 16  1  0      
 15 17  1  0      
 15 18  1  0      
 20 36  1  0      
 20 37  1  0      
 20 38  1  0      
 21 39  1  0      
 21 40  1  0      
 21 41  1  0      
 22 23  1  0      
 22 27  2  0      
 23 24  2  0      
 23 42  1  0      
 24 25  1  0      
 24 32  1  0      
 25 26  2  0      
 25 28  1  0      
 26 27  1  0      
 26 43  1  0      
 27 44  1  0      
 28 29  1  0      
 28 31  2  0      
 29 30  1  0      
 29 45  1  0      
 30 46  1  0      
 30 47  1  0      
 30 48  1  0      
M  END
