
  Chem3D Core 14.008141513373D

 63 65  0  0  0  0  0  0  0  0999 V2000
    2.2775    0.5829   -0.4932 O   0  0  0  0  0  0  0  0  0  0  0  0
   -0.1897    1.0151   -1.1623 O   0  0  0  0  0  0  0  0  0  0  0  0
    2.4927   -2.1007   -0.7792 O   0  0  0  0  0  0  0  0  0  0  0  0
    0.2137   -3.1557    0.5975 O   0  0  0  0  0  0  0  0  0  0  0  0
   -0.7247    2.2333    1.7402 O   0  0  0  0  0  0  0  0  0  0  0  0
   -2.5009    1.7792   -0.1237 O   0  0  0  0  0  0  0  0  0  0  0  0
    1.9384   -4.3444   -0.8445 O   0  0  0  0  0  0  0  0  0  0  0  0
   -1.3075   -0.3436    0.4856 C   0  0  0  0  0  0  0  0  0  0  0  0
   -0.0360    0.5134    0.1566 C   0  0  0  0  0  0  0  0  0  0  0  0
   -1.3237   -1.5809   -0.4748 C   0  0  0  0  0  0  0  0  0  0  0  0
    1.3174   -0.2279    0.1448 C   0  0  0  0  0  0  0  0  0  0  0  0
    0.0058   -2.3583   -0.5402 C   0  0  0  0  0  0  0  0  0  0  0  0
    1.2302   -1.4768   -0.7726 C   0  0  0  0  0  0  0  0  0  0  0  0
   -2.6085   -2.4781   -0.5141 C   0  0  0  0  0  0  0  0  0  0  0  0
    0.1472    1.7378    1.0628 C   0  0  0  0  0  0  0  0  0  0  0  0
   -2.6474    0.4609    0.3534 C   0  0  0  0  0  0  0  0  0  0  0  0
    2.3963    1.9443   -0.1333 C   0  0  0  0  0  0  0  0  0  0  0  0
   -1.2694   -0.8398    1.9556 C   0  0  0  0  0  0  0  0  0  0  0  0
    1.5442    2.3301    1.0793 C   0  0  0  0  0  0  0  0  0  0  0  0
   -3.8625   -1.6700   -0.1106 C   0  0  0  0  0  0  0  0  0  0  0  0
   -3.7231   -0.2010   -0.5043 C   0  0  0  0  0  0  0  0  0  0  0  0
    1.8859   -0.6172    1.5279 C   0  0  0  0  0  0  0  0  0  0  0  0
   -2.5623   -3.7402    0.3762 C   0  0  0  0  0  0  0  0  0  0  0  0
   -2.8415   -2.9948   -1.9625 C   0  0  0  0  0  0  0  0  0  0  0  0
    2.0558    2.8027   -1.3499 C   0  0  0  0  0  0  0  0  0  0  0  0
    3.8808    2.2022    0.1740 C   0  0  0  0  0  0  0  0  0  0  0  0
    2.7371   -3.4404   -0.7679 C   0  0  0  0  0  0  0  0  0  0  0  0
    1.9913    4.1421   -1.3649 C   0  0  0  0  0  0  0  0  0  0  0  0
    4.2325   -3.6637   -0.6233 C   0  0  0  0  0  0  0  0  0  0  0  0
   -1.3609   -1.0862   -1.4797 H   0  0  0  0  0  0  0  0  0  0  0  0
    0.6214    0.9279   -1.6669 H   0  0  0  0  0  0  0  0  0  0  0  0
    0.4592   -4.0431    0.3202 H   0  0  0  0  0  0  0  0  0  0  0  0
   -2.1695    2.3445    0.5772 H   0  0  0  0  0  0  0  0  0  0  0  0
   -0.0902   -3.0624   -1.3989 H   0  0  0  0  0  0  0  0  0  0  0  0
    1.0926   -1.1019   -1.8208 H   0  0  0  0  0  0  0  0  0  0  0  0
   -3.0953    0.6043    1.3667 H   0  0  0  0  0  0  0  0  0  0  0  0
   -1.1816   -0.0108    2.6898 H   0  0  0  0  0  0  0  0  0  0  0  0
   -2.1879   -1.3960    2.2369 H   0  0  0  0  0  0  0  0  0  0  0  0
   -0.4358   -1.5289    2.1784 H   0  0  0  0  0  0  0  0  0  0  0  0
    1.4670    3.4339    1.1917 H   0  0  0  0  0  0  0  0  0  0  0  0
    2.0397    2.0010    2.0196 H   0  0  0  0  0  0  0  0  0  0  0  0
   -4.0341   -1.7226    0.9889 H   0  0  0  0  0  0  0  0  0  0  0  0
   -4.7803   -2.1052   -0.5700 H   0  0  0  0  0  0  0  0  0  0  0  0
   -3.4824   -0.1036   -1.5875 H   0  0  0  0  0  0  0  0  0  0  0  0
   -4.6987    0.3221   -0.3548 H   0  0  0  0  0  0  0  0  0  0  0  0
    1.4457   -0.0515    2.3745 H   0  0  0  0  0  0  0  0  0  0  0  0
    1.7419   -1.6834    1.7893 H   0  0  0  0  0  0  0  0  0  0  0  0
    2.9889   -0.4788    1.5832 H   0  0  0  0  0  0  0  0  0  0  0  0
   -2.3414   -3.5031    1.4390 H   0  0  0  0  0  0  0  0  0  0  0  0
   -3.5416   -4.2709    0.3689 H   0  0  0  0  0  0  0  0  0  0  0  0
   -1.8128   -4.4806    0.0193 H   0  0  0  0  0  0  0  0  0  0  0  0
   -1.9946   -3.6120   -2.3337 H   0  0  0  0  0  0  0  0  0  0  0  0
   -3.7459   -3.6409   -2.0302 H   0  0  0  0  0  0  0  0  0  0  0  0
   -2.9893   -2.1657   -2.6898 H   0  0  0  0  0  0  0  0  0  0  0  0
    1.8857    2.2863   -2.3104 H   0  0  0  0  0  0  0  0  0  0  0  0
    4.5226    1.9672   -0.7060 H   0  0  0  0  0  0  0  0  0  0  0  0
    4.0679    3.2627    0.4566 H   0  0  0  0  0  0  0  0  0  0  0  0
    4.2385    1.5712    1.0188 H   0  0  0  0  0  0  0  0  0  0  0  0
    1.7580    4.6842   -2.2946 H   0  0  0  0  0  0  0  0  0  0  0  0
    2.1766    4.7506   -0.4688 H   0  0  0  0  0  0  0  0  0  0  0  0
    4.5978   -3.2297    0.3353 H   0  0  0  0  0  0  0  0  0  0  0  0
    4.4737   -4.7506   -0.6222 H   0  0  0  0  0  0  0  0  0  0  0  0
    4.7803   -3.1907   -1.4697 H   0  0  0  0  0  0  0  0  0  0  0  0
 11  1  1  0      
  1 17  1  0      
  9  2  1  0      
  2 31  1  0      
 13  3  1  0      
  3 27  1  0      
 12  4  1  0      
  4 32  1  0      
  5 15  2  0      
 16  6  1  0      
  6 33  1  0      
  7 27  2  0      
  9  8  1  0      
  8 10  1  0      
  8 16  1  0      
  8 18  1  0      
  9 11  1  0      
  9 15  1  0      
 10 12  1  0      
 10 14  1  0      
 10 30  1  0      
 11 13  1  0      
 11 22  1  0      
 13 12  1  0      
 12 34  1  0      
 13 35  1  0      
 14 20  1  0      
 14 23  1  0      
 14 24  1  0      
 15 19  1  0      
 16 21  1  0      
 16 36  1  0      
 19 17  1  0      
 17 25  1  0      
 17 26  1  0      
 18 37  1  0      
 18 38  1  0      
 18 39  1  0      
 19 40  1  0      
 19 41  1  0      
 21 20  1  0      
 20 42  1  0      
 20 43  1  0      
 21 44  1  0      
 21 45  1  0      
 22 46  1  0      
 22 47  1  0      
 22 48  1  0      
 23 49  1  0      
 23 50  1  0      
 23 51  1  0      
 24 52  1  0      
 24 53  1  0      
 24 54  1  0      
 25 28  2  0      
 25 55  1  0      
 26 56  1  0      
 26 57  1  0      
 26 58  1  0      
 27 29  1  0      
 28 59  1  0      
 28 60  1  0      
 29 61  1  0      
 29 62  1  0      
 29 63  1  0      
M  END
