
  Chem3D Core 15.003291611103D

 68 70  0  0  0  0  0  0  0  0999 V2000
   -1.5158    5.0895   -2.0055 S   0  0  0  0  0  0  0  0  0  0  0  0
   -2.0684    3.3775   -1.8817 C   0  0  0  0  0  0  0  0  0  0  0  0
   -1.7240    2.4755   -2.8170 C   0  0  0  0  0  0  0  0  0  0  0  0
   -2.7699    2.9595   -0.8141 C   0  0  0  0  0  0  0  0  0  0  0  0
   -2.0717    1.1864   -2.6858 C   0  0  0  0  0  0  0  0  0  0  0  0
   -3.1213    1.6702   -0.6915 C   0  0  0  0  0  0  0  0  0  0  0  0
   -2.7738    0.7629   -1.6206 C   0  0  0  0  0  0  0  0  0  0  0  0
   -3.1665   -0.6914   -1.4677 C   0  0  0  0  0  0  0  0  0  0  0  0
   -2.4208   -1.3762   -0.3105 C   0  0  0  0  0  0  0  0  0  0  0  0
   -2.8289   -2.7835   -0.2593 N   0  0  0  0  0  0  0  0  0  0  0  0
   -1.9937   -3.8466   -0.0632 C   0  0  0  0  0  0  0  0  0  0  0  0
   -2.4205   -4.9284   -0.3770 O   0  0  0  0  0  0  0  0  0  0  0  0
   -0.7103   -3.7378    0.4470 N   0  0  0  0  0  0  0  0  0  0  0  0
    0.3117   -4.6498   -0.0371 C   0  0  0  0  0  0  0  0  0  0  0  0
   -0.2296   -2.9410    1.4675 C   0  0  0  0  0  0  0  0  0  0  0  0
    1.4720   -4.2025    0.8028 C   0  0  0  0  0  0  0  0  0  0  0  0
    1.0893   -3.2312    1.6536 C   0  0  0  0  0  0  0  0  0  0  0  0
    1.8535   -2.4828    2.7228 C   0  0  0  0  0  0  0  0  0  0  0  0
    3.3566   -2.7076    2.8963 C   0  0  0  0  0  0  0  0  0  0  0  0
    2.7848   -4.8960    0.5845 C   0  0  0  0  0  0  0  0  0  0  0  0
   -0.8915   -2.1339    2.0724 O   0  0  0  0  0  0  0  0  0  0  0  0
   -0.2726    4.4126   -1.0535 N   0  0  0  0  0  0  0  0  0  0  0  0
    0.9519    4.0105   -1.5304 C   0  0  0  0  0  0  0  0  0  0  0  0
    1.5844    4.7013   -2.2859 O   0  0  0  0  0  0  0  0  0  0  0  0
    1.3520    2.7640   -1.1329 N   0  0  0  0  0  0  0  0  0  0  0  0
    2.5261    2.0734   -1.6852 C   0  0  0  0  0  0  0  0  0  0  0  0
    3.3135    1.3838   -0.5588 C   0  0  0  0  0  0  0  0  0  0  0  0
    2.5067    0.2514    0.0921 C   0  0  0  0  0  0  0  0  0  0  0  0
    1.2580   -0.0908   -2.0757 C   0  0  0  0  0  0  0  0  0  0  0  0
    2.0765    1.0342   -2.7256 C   0  0  0  0  0  0  0  0  0  0  0  0
    2.0121   -0.7867   -0.9302 C   0  0  0  0  0  0  0  0  0  0  0  0
    3.1448   -1.6937   -1.4371 C   0  0  0  0  0  0  0  0  0  0  0  0
   -2.3070    5.9676   -1.1538 O   0  0  0  0  0  0  0  0  0  0  0  0
   -1.1986    5.3738   -3.3983 O   0  0  0  0  0  0  0  0  0  0  0  0
   -1.1421    2.7740   -3.7048 H   0  0  0  0  0  0  0  0  0  0  0  0
   -3.0579    3.6637   -0.0159 H   0  0  0  0  0  0  0  0  0  0  0  0
   -1.7673    0.4698   -3.4667 H   0  0  0  0  0  0  0  0  0  0  0  0
   -3.6965    1.3521    0.1938 H   0  0  0  0  0  0  0  0  0  0  0  0
   -4.2676   -0.7481   -1.2959 H   0  0  0  0  0  0  0  0  0  0  0  0
   -2.9681   -1.2517   -2.4115 H   0  0  0  0  0  0  0  0  0  0  0  0
   -1.3243   -1.2826   -0.4874 H   0  0  0  0  0  0  0  0  0  0  0  0
   -2.6866   -0.8826    0.6520 H   0  0  0  0  0  0  0  0  0  0  0  0
   -3.8003   -3.0264   -0.4512 H   0  0  0  0  0  0  0  0  0  0  0  0
    0.0689   -5.7145    0.1818 H   0  0  0  0  0  0  0  0  0  0  0  0
    0.5122   -4.4899   -1.1210 H   0  0  0  0  0  0  0  0  0  0  0  0
    1.7020   -1.3918    2.5368 H   0  0  0  0  0  0  0  0  0  0  0  0
    1.3613   -2.7131    3.6992 H   0  0  0  0  0  0  0  0  0  0  0  0
    3.7575   -2.0530    3.7048 H   0  0  0  0  0  0  0  0  0  0  0  0
    3.5821   -3.7538    3.2031 H   0  0  0  0  0  0  0  0  0  0  0  0
    3.9201   -2.4452    1.9726 H   0  0  0  0  0  0  0  0  0  0  0  0
    2.6930   -5.9676    0.8720 H   0  0  0  0  0  0  0  0  0  0  0  0
    3.0521   -4.8523   -0.4956 H   0  0  0  0  0  0  0  0  0  0  0  0
    3.6438   -4.4738    1.1359 H   0  0  0  0  0  0  0  0  0  0  0  0
   -0.5654    3.9906   -0.1836 H   0  0  0  0  0  0  0  0  0  0  0  0
    0.7251    2.2379   -0.5222 H   0  0  0  0  0  0  0  0  0  0  0  0
    3.2138    2.8045   -2.1755 H   0  0  0  0  0  0  0  0  0  0  0  0
    3.5966    2.1377    0.2144 H   0  0  0  0  0  0  0  0  0  0  0  0
    4.2676    0.9743   -0.9663 H   0  0  0  0  0  0  0  0  0  0  0  0
    1.6252    0.6904    0.6180 H   0  0  0  0  0  0  0  0  0  0  0  0
    3.1253   -0.2468    0.8748 H   0  0  0  0  0  0  0  0  0  0  0  0
    0.3176    0.3452   -1.6636 H   0  0  0  0  0  0  0  0  0  0  0  0
    0.9503   -0.8382   -2.8444 H   0  0  0  0  0  0  0  0  0  0  0  0
    1.4671    1.5365   -3.5148 H   0  0  0  0  0  0  0  0  0  0  0  0
    2.9678    0.6047   -3.2391 H   0  0  0  0  0  0  0  0  0  0  0  0
    1.2829   -1.4588   -0.4103 H   0  0  0  0  0  0  0  0  0  0  0  0
    3.6515   -2.2103   -0.5907 H   0  0  0  0  0  0  0  0  0  0  0  0
    3.9239   -1.1294   -1.9936 H   0  0  0  0  0  0  0  0  0  0  0  0
    2.7503   -2.4824   -2.1177 H   0  0  0  0  0  0  0  0  0  0  0  0
  1  2  1  0      
  1 22  1  0      
  1 33  2  0      
  1 34  2  0      
  2  3  1  0      
  2  4  2  0      
  3  5  2  0      
  3 35  1  0      
  6  4  1  0      
  4 36  1  0      
  5  7  1  0      
  5 37  1  0      
  7  6  2  0      
  6 38  1  0      
  7  8  1  0      
  8  9  1  0      
  8 39  1  0      
  8 40  1  0      
  9 10  1  0      
  9 41  1  0      
  9 42  1  0      
 10 11  1  0      
 10 43  1  0      
 11 12  2  0      
 11 13  1  0      
 13 14  1  0      
 13 15  1  0      
 14 16  1  0      
 14 44  1  0      
 14 45  1  0      
 17 15  1  0      
 15 21  2  0      
 16 17  2  0      
 16 20  1  0      
 17 18  1  0      
 18 19  1  0      
 18 46  1  0      
 18 47  1  0      
 19 48  1  0      
 19 49  1  0      
 19 50  1  0      
 20 51  1  0      
 20 52  1  0      
 20 53  1  0      
 22 23  1  0      
 22 54  1  0      
 23 24  2  0      
 23 25  1  0      
 26 25  1  0      
 25 55  1  0      
 26 27  1  0      
 26 30  1  0      
 26 56  1  0      
 27 28  1  0      
 27 57  1  0      
 27 58  1  0      
 28 31  1  0      
 28 59  1  0      
 28 60  1  0      
 29 30  1  0      
 31 29  1  0      
 29 61  1  0      
 29 62  1  0      
 30 63  1  0      
 30 64  1  0      
 31 32  1  0      
 31 65  1  0      
 32 66  1  0      
 32 67  1  0      
 32 68  1  0      
M  END
