
  Chem3D Core 15.008161521493D

 66 70  0  0  0  0  0  0  0  0999 V2000
    2.8788   -5.4811   -2.0683 C   0  0  0  0  0  0  0  0  0  0  0  0
    2.6591   -5.3382   -0.3029 S   0  0  0  0  0  0  0  0  0  0  0  0
    1.3076   -5.5946    0.1576 O   0  0  0  0  0  0  0  0  0  0  0  0
    3.8490   -5.6345    0.4739 O   0  0  0  0  0  0  0  0  0  0  0  0
    2.7095   -3.5015   -0.3934 C   0  0  0  0  0  0  0  0  0  0  0  0
    2.5095   -2.8522    0.9871 C   0  0  0  0  0  0  0  0  0  0  0  0
    2.6531   -1.3982    0.8938 N   0  0  0  0  0  0  0  0  0  0  0  0
    2.4317   -0.7116    2.1653 C   0  0  0  0  0  0  0  0  0  0  0  0
    2.7497    0.7477    2.0045 C   0  0  0  0  0  0  0  0  0  0  0  0
    3.9229    1.3289    2.2858 C   0  0  0  0  0  0  0  0  0  0  0  0
    3.7288    2.6197    1.9908 C   0  0  0  0  0  0  0  0  0  0  0  0
    2.4573    2.7027    1.5611 C   0  0  0  0  0  0  0  0  0  0  0  0
    1.9419    1.5791    1.5921 O   0  0  0  0  0  0  0  0  0  0  0  0
    1.7957    3.8028    1.1415 C   0  0  0  0  0  0  0  0  0  0  0  0
    0.5052    3.7182    0.7628 C   0  0  0  0  0  0  0  0  0  0  0  0
   -0.2258    4.7371    0.2743 C   0  0  0  0  0  0  0  0  0  0  0  0
    0.3547    5.9547    0.3265 C   0  0  0  0  0  0  0  0  0  0  0  0
    1.6350    6.0880    0.7130 C   0  0  0  0  0  0  0  0  0  0  0  0
    2.3578    5.0231    1.0898 C   0  0  0  0  0  0  0  0  0  0  0  0
   -0.2917    6.9945    0.0065 N   0  0  0  0  0  0  0  0  0  0  0  0
   -1.5017    6.8288   -0.3110 C   0  0  0  0  0  0  0  0  0  0  0  0
   -2.1210    5.7312   -0.3919 N   0  0  0  0  0  0  0  0  0  0  0  0
   -1.5058    4.6412   -0.1627 C   0  0  0  0  0  0  0  0  0  0  0  0
   -2.2261    3.6111   -0.3927 N   0  0  0  0  0  0  0  0  0  0  0  0
   -2.1304    2.3524   -0.5743 C   0  0  0  0  0  0  0  0  0  0  0  0
   -3.2815    1.6541   -0.6066 C   0  0  0  0  0  0  0  0  0  0  0  0
   -3.2999    0.3199   -0.7717 C   0  0  0  0  0  0  0  0  0  0  0  0
   -2.1741   -0.4011   -0.9543 C   0  0  0  0  0  0  0  0  0  0  0  0
   -1.0339    0.3151   -0.9845 C   0  0  0  0  0  0  0  0  0  0  0  0
   -1.0155    1.6467   -0.8273 C   0  0  0  0  0  0  0  0  0  0  0  0
   -2.2341   -1.7693   -1.0868 O   0  0  0  0  0  0  0  0  0  0  0  0
   -1.0318   -2.5086   -1.0172 C   0  0  0  0  0  0  0  0  0  0  0  0
   -1.3204   -3.9945   -0.9971 C   0  0  0  0  0  0  0  0  0  0  0  0
   -0.9188   -4.7978   -1.9979 C   0  0  0  0  0  0  0  0  0  0  0  0
   -1.1461   -6.1201   -1.9619 C   0  0  0  0  0  0  0  0  0  0  0  0
   -1.7957   -6.6532   -0.9159 C   0  0  0  0  0  0  0  0  0  0  0  0
   -2.2093   -5.8638    0.0869 C   0  0  0  0  0  0  0  0  0  0  0  0
   -1.9682   -4.5444    0.0453 C   0  0  0  0  0  0  0  0  0  0  0  0
   -0.7245   -6.8893   -2.9523 F   0  0  0  0  0  0  0  0  0  0  0  0
   -4.8346   -0.4836   -0.7424 Cl  0  0  0  0  0  0  0  0  0  0  0  0
    3.8508   -5.0460   -2.3909 H   0  0  0  0  0  0  0  0  0  0  0  0
    2.8785   -6.5607   -2.3397 H   0  0  0  0  0  0  0  0  0  0  0  0
    2.0500   -4.9907   -2.6244 H   0  0  0  0  0  0  0  0  0  0  0  0
    3.6958   -3.1840   -0.8065 H   0  0  0  0  0  0  0  0  0  0  0  0
    1.9123   -3.1389   -1.0834 H   0  0  0  0  0  0  0  0  0  0  0  0
    1.4967   -3.1065    1.3811 H   0  0  0  0  0  0  0  0  0  0  0  0
    3.2700   -3.2453    1.7025 H   0  0  0  0  0  0  0  0  0  0  0  0
    3.6218   -1.1642    0.5612 H   0  0  0  0  0  0  0  0  0  0  0  0
    1.3744   -0.8306    2.4982 H   0  0  0  0  0  0  0  0  0  0  0  0
    3.0948   -1.1399    2.9523 H   0  0  0  0  0  0  0  0  0  0  0  0
    4.8346    0.8560    2.6685 H   0  0  0  0  0  0  0  0  0  0  0  0
    4.4806    3.4105    2.0943 H   0  0  0  0  0  0  0  0  0  0  0  0
   -0.0086    2.7681    0.9484 H   0  0  0  0  0  0  0  0  0  0  0  0
    2.1094    7.0851    0.7274 H   0  0  0  0  0  0  0  0  0  0  0  0
    3.4033    5.1982    1.3885 H   0  0  0  0  0  0  0  0  0  0  0  0
   -2.0746    7.7387   -0.5597 H   0  0  0  0  0  0  0  0  0  0  0  0
   -3.2351    3.9004   -0.4921 H   0  0  0  0  0  0  0  0  0  0  0  0
   -4.2421    2.1792   -0.4596 H   0  0  0  0  0  0  0  0  0  0  0  0
   -0.0629   -0.1701   -1.1742 H   0  0  0  0  0  0  0  0  0  0  0  0
   -0.0414    2.1350   -0.9795 H   0  0  0  0  0  0  0  0  0  0  0  0
   -0.3959   -2.2534   -1.8949 H   0  0  0  0  0  0  0  0  0  0  0  0
   -0.4913   -2.2514   -0.0766 H   0  0  0  0  0  0  0  0  0  0  0  0
   -0.3804   -4.3751   -2.8615 H   0  0  0  0  0  0  0  0  0  0  0  0
   -1.9843   -7.7387   -0.8788 H   0  0  0  0  0  0  0  0  0  0  0  0
   -2.7386   -6.3011    0.9499 H   0  0  0  0  0  0  0  0  0  0  0  0
   -2.3006   -3.9065    0.8810 H   0  0  0  0  0  0  0  0  0  0  0  0
  1  2  1  0      
  1 41  1  0      
  1 42  1  0      
  1 43  1  0      
  2  3  2  0      
  2  4  2  0      
  2  5  1  0      
  5  6  1  0      
  5 44  1  0      
  5 45  1  0      
  6  7  1  0      
  6 46  1  0      
  6 47  1  0      
  7  8  1  0      
  7 48  1  0      
  8  9  1  0      
  8 49  1  0      
  8 50  1  0      
  9 10  2  0      
  9 13  1  0      
 10 11  1  0      
 10 51  1  0      
 11 12  2  0      
 11 52  1  0      
 12 13  1  0      
 12 14  1  0      
 15 14  2  0      
 19 14  1  0      
 16 15  1  0      
 15 53  1  0      
 17 16  1  0      
 23 16  2  0      
 18 17  1  0      
 17 20  2  0      
 19 18  2  0      
 18 54  1  0      
 19 55  1  0      
 20 21  1  0      
 21 22  2  0      
 21 56  1  0      
 22 23  1  0      
 23 24  1  0      
 24 25  1  0      
 24 57  1  0      
 25 26  1  0      
 25 30  2  0      
 26 27  2  0      
 26 58  1  0      
 27 28  1  0      
 27 40  1  0      
 28 29  2  0      
 28 31  1  0      
 29 30  1  0      
 29 59  1  0      
 30 60  1  0      
 31 32  1  0      
 32 33  1  0      
 32 61  1  0      
 32 62  1  0      
 33 34  1  0      
 33 38  2  0      
 34 35  2  0      
 34 63  1  0      
 35 36  1  0      
 35 39  1  0      
 36 37  2  0      
 36 64  1  0      
 37 38  1  0      
 37 65  1  0      
 38 66  1  0      
M  END
