
  Chem3D Core 15.010151511023D

 65 68  0  0  0  0  0  0  0  0999 V2000
    3.6408    0.9005    0.8872 C   0  0  0  0  0  0  0  0  0  0  0  0
    3.6251   -0.0952   -0.0182 C   0  0  0  0  0  0  0  0  0  0  0  0
    2.5164   -0.2422   -0.7580 C   0  0  0  0  0  0  0  0  0  0  0  0
    1.4086    0.5037   -0.6144 C   0  0  0  0  0  0  0  0  0  0  0  0
    1.3847    1.4680    0.3341 C   0  0  0  0  0  0  0  0  0  0  0  0
    2.5334    1.6552    1.0205 C   0  0  0  0  0  0  0  0  0  0  0  0
    4.6885   -0.9115   -0.2499 O   0  0  0  0  0  0  0  0  0  0  0  0
    0.3987    0.3032   -1.5070 O   0  0  0  0  0  0  0  0  0  0  0  0
    0.3407    2.3022    0.5701 C   0  0  0  0  0  0  0  0  0  0  0  0
   -0.9926    2.2574    0.2984 C   0  0  0  0  0  0  0  0  0  0  0  0
   -1.2909    3.5763    0.1781 C   0  0  0  0  0  0  0  0  0  0  0  0
   -1.7736    1.1486    0.1982 C   0  0  0  0  0  0  0  0  0  0  0  0
   -2.0259   -1.2124    0.4087 C   0  0  0  0  0  0  0  0  0  0  0  0
   -1.3001   -0.0857    0.4795 C   0  0  0  0  0  0  0  0  0  0  0  0
   -3.1172    1.1497    0.0662 C   0  0  0  0  0  0  0  0  0  0  0  0
   -3.3343   -1.1740    0.1215 C   0  0  0  0  0  0  0  0  0  0  0  0
   -3.8753    0.0448   -0.0129 C   0  0  0  0  0  0  0  0  0  0  0  0
   -2.3693    4.2346   -0.3296 C   0  0  0  0  0  0  0  0  0  0  0  0
   -2.6159    5.4013   -0.1237 O   0  0  0  0  0  0  0  0  0  0  0  0
   -3.0450    3.5371   -1.2872 N   0  0  0  0  0  0  0  0  0  0  0  0
   -4.1615    4.1010   -2.0499 C   0  0  0  0  0  0  0  0  0  0  0  0
   -4.9500    2.9671   -2.7158 C   0  0  0  0  0  0  0  0  0  0  0  0
    0.6228    3.4016    1.0512 O   0  0  0  0  0  0  0  0  0  0  0  0
   -0.3192    4.2275    0.6560 N   0  0  0  0  0  0  0  0  0  0  0  0
   -4.1668   -2.4381    0.0679 C   0  0  0  0  0  0  0  0  0  0  0  0
   -6.4044   -2.3162    2.2004 C   0  0  0  0  0  0  0  0  0  0  0  0
   -4.8881   -2.3315    2.3895 C   0  0  0  0  0  0  0  0  0  0  0  0
   -4.8011   -4.4233    1.2971 C   0  0  0  0  0  0  0  0  0  0  0  0
   -6.3187   -4.3719    1.1231 C   0  0  0  0  0  0  0  0  0  0  0  0
   -4.1935   -3.1018    1.3672 N   0  0  0  0  0  0  0  0  0  0  0  0
   -6.9063   -3.6276    2.1595 O   0  0  0  0  0  0  0  0  0  0  0  0
    4.8626    1.1933    1.7542 C   0  0  0  0  0  0  0  0  0  0  0  0
    5.2271    0.0149    2.6723 C   0  0  0  0  0  0  0  0  0  0  0  0
    6.0659    1.6639    0.9208 C   0  0  0  0  0  0  0  0  0  0  0  0
    2.5226   -1.0143   -1.5472 H   0  0  0  0  0  0  0  0  0  0  0  0
    2.5883    2.4518    1.7808 H   0  0  0  0  0  0  0  0  0  0  0  0
    4.4799   -1.5034   -0.9908 H   0  0  0  0  0  0  0  0  0  0  0  0
   -0.2713    0.9944   -1.4013 H   0  0  0  0  0  0  0  0  0  0  0  0
   -1.5535   -2.1840    0.6323 H   0  0  0  0  0  0  0  0  0  0  0  0
   -0.2731   -0.2494    0.8339 H   0  0  0  0  0  0  0  0  0  0  0  0
   -3.7065    2.0729    0.0782 H   0  0  0  0  0  0  0  0  0  0  0  0
   -4.9678    0.1400   -0.1348 H   0  0  0  0  0  0  0  0  0  0  0  0
   -2.6837    2.6163   -1.5397 H   0  0  0  0  0  0  0  0  0  0  0  0
   -4.8461    4.6697   -1.3774 H   0  0  0  0  0  0  0  0  0  0  0  0
   -3.7612    4.7963   -2.8245 H   0  0  0  0  0  0  0  0  0  0  0  0
   -5.7914    3.3695   -3.3257 H   0  0  0  0  0  0  0  0  0  0  0  0
   -4.2957    2.3682   -3.3901 H   0  0  0  0  0  0  0  0  0  0  0  0
   -5.3821    2.2762   -1.9560 H   0  0  0  0  0  0  0  0  0  0  0  0
   -5.1857   -2.2241   -0.3210 H   0  0  0  0  0  0  0  0  0  0  0  0
   -3.6826   -3.0984   -0.6909 H   0  0  0  0  0  0  0  0  0  0  0  0
   -6.8919   -1.8026    3.0620 H   0  0  0  0  0  0  0  0  0  0  0  0
   -6.7147   -1.7699    1.2821 H   0  0  0  0  0  0  0  0  0  0  0  0
   -4.6634   -2.7756    3.3901 H   0  0  0  0  0  0  0  0  0  0  0  0
   -4.4981   -1.2889    2.4415 H   0  0  0  0  0  0  0  0  0  0  0  0
   -4.3405   -5.0268    0.4798 H   0  0  0  0  0  0  0  0  0  0  0  0
   -4.5723   -4.9785    2.2396 H   0  0  0  0  0  0  0  0  0  0  0  0
   -6.7446   -5.4013    1.1732 H   0  0  0  0  0  0  0  0  0  0  0  0
   -6.6205   -3.9441    0.1412 H   0  0  0  0  0  0  0  0  0  0  0  0
    4.6236    2.0440    2.4434 H   0  0  0  0  0  0  0  0  0  0  0  0
    6.0374    0.2987    3.3826 H   0  0  0  0  0  0  0  0  0  0  0  0
    4.3481   -0.3049    3.2780 H   0  0  0  0  0  0  0  0  0  0  0  0
    5.5929   -0.8700    2.1081 H   0  0  0  0  0  0  0  0  0  0  0  0
    6.9063    1.9840    1.5787 H   0  0  0  0  0  0  0  0  0  0  0  0
    5.7916    2.5342    0.2812 H   0  0  0  0  0  0  0  0  0  0  0  0
    6.4636    0.8659    0.2571 H   0  0  0  0  0  0  0  0  0  0  0  0
  1  2  1  0      
  1  6  2  0      
  1 32  1  0      
  2  3  2  0      
  2  7  1  0      
  3  4  1  0      
  3 35  1  0      
  4  5  2  0      
  4  8  1  0      
  5  6  1  0      
  5  9  1  0      
  6 36  1  0      
  7 37  1  0      
  8 38  1  0      
  9 10  2  0      
  9 23  1  0      
 11 10  1  0      
 10 12  1  0      
 11 18  1  0      
 24 11  2  0      
 12 14  1  0      
 12 15  2  0      
 14 13  2  0      
 13 16  1  0      
 13 39  1  0      
 14 40  1  0      
 17 15  1  0      
 15 41  1  0      
 16 17  2  0      
 16 25  1  0      
 17 42  1  0      
 18 19  2  0      
 18 20  1  0      
 20 21  1  0      
 20 43  1  0      
 21 22  1  0      
 21 44  1  0      
 21 45  1  0      
 22 46  1  0      
 22 47  1  0      
 22 48  1  0      
 23 24  1  0      
 25 30  1  0      
 25 49  1  0      
 25 50  1  0      
 27 26  1  0      
 26 31  1  0      
 26 51  1  0      
 26 52  1  0      
 30 27  1  0      
 27 53  1  0      
 27 54  1  0      
 29 28  1  0      
 30 28  1  0      
 28 55  1  0      
 28 56  1  0      
 31 29  1  0      
 29 57  1  0      
 29 58  1  0      
 32 33  1  0      
 32 34  1  0      
 32 59  1  0      
 33 60  1  0      
 33 61  1  0      
 33 62  1  0      
 34 63  1  0      
 34 64  1  0      
 34 65  1  0      
M  END
