
  Chem3D Core 15.008161521493D

 57 60  0  0  0  0  0  0  0  0999 V2000
   12.4725    2.5313   -1.2749 F   0  0  0  0  0  0  0  0  0  0  0  0
   11.6653    3.6767    0.3383 F   0  0  0  0  0  0  0  0  0  0  0  0
   11.2684    4.2431   -1.6773 F   0  0  0  0  0  0  0  0  0  0  0  0
    4.6033   -1.7515   -1.1000 O   0  0  0  0  0  0  0  0  0  0  0  0
    0.5641   -2.0170   -0.3686 O   0  0  0  0  0  0  0  0  0  0  0  0
    3.6442   -0.7672    0.4502 N   0  0  0  0  0  0  0  0  0  0  0  0
   -9.7846   -2.3204   -0.3284 N   0  0  0  0  0  0  0  0  0  0  0  0
  -10.4395   -1.5218    0.3439 N   0  0  0  0  0  0  0  0  0  0  0  0
  -11.5810   -1.9772    0.6098 N   0  0  0  0  0  0  0  0  0  0  0  0
   10.1446    2.3700   -0.9093 C   0  0  0  0  0  0  0  0  0  0  0  0
   11.4052    3.2021   -0.8700 C   0  0  0  0  0  0  0  0  0  0  0  0
    7.9026    0.7718   -0.8893 C   0  0  0  0  0  0  0  0  0  0  0  0
    4.6805   -0.8289   -0.2820 C   0  0  0  0  0  0  0  0  0  0  0  0
    2.8848   -1.6993    0.0636 C   0  0  0  0  0  0  0  0  0  0  0  0
   10.0186    1.3311   -1.7521 C   0  0  0  0  0  0  0  0  0  0  0  0
    9.1508    2.5644   -0.0259 C   0  0  0  0  0  0  0  0  0  0  0  0
    8.9197    0.5603   -1.7491 C   0  0  0  0  0  0  0  0  0  0  0  0
    8.0518    1.7926   -0.0232 C   0  0  0  0  0  0  0  0  0  0  0  0
    6.8229   -0.0381   -0.9385 C   0  0  0  0  0  0  0  0  0  0  0  0
    5.7210    0.0152   -0.1677 C   0  0  0  0  0  0  0  0  0  0  0  0
    3.5262   -2.3124   -0.9327 C   0  0  0  0  0  0  0  0  0  0  0  0
    1.5368   -1.9869    0.6552 C   0  0  0  0  0  0  0  0  0  0  0  0
   -0.7536   -2.2126   -0.0324 C   0  0  0  0  0  0  0  0  0  0  0  0
   -3.4478   -2.5446    0.4832 C   0  0  0  0  0  0  0  0  0  0  0  0
   -1.6918   -2.0939   -0.9913 C   0  0  0  0  0  0  0  0  0  0  0  0
   -1.2139   -2.4938    1.2025 C   0  0  0  0  0  0  0  0  0  0  0  0
   -3.0019   -2.2563   -0.7512 C   0  0  0  0  0  0  0  0  0  0  0  0
   -2.5224   -2.6592    1.4519 C   0  0  0  0  0  0  0  0  0  0  0  0
   -4.9126   -2.7360    0.8273 C   0  0  0  0  0  0  0  0  0  0  0  0
   -5.9373   -2.3720   -0.2592 C   0  0  0  0  0  0  0  0  0  0  0  0
   -8.4113   -2.1732   -0.8421 C   0  0  0  0  0  0  0  0  0  0  0  0
  -10.4447   -3.3751   -0.5612 C   0  0  0  0  0  0  0  0  0  0  0  0
   -7.3831   -2.5394    0.2392 C   0  0  0  0  0  0  0  0  0  0  0  0
  -11.6016   -3.1181    0.0602 C   0  0  0  0  0  0  0  0  0  0  0  0
   10.8244    1.1045   -2.4700 H   0  0  0  0  0  0  0  0  0  0  0  0
    9.2276    3.3803    0.7122 H   0  0  0  0  0  0  0  0  0  0  0  0
    8.8814   -0.2657   -2.4810 H   0  0  0  0  0  0  0  0  0  0  0  0
    7.2857    2.0379    0.7284 H   0  0  0  0  0  0  0  0  0  0  0  0
    6.8394   -0.8389   -1.6999 H   0  0  0  0  0  0  0  0  0  0  0  0
    5.6244    0.7835    0.6155 H   0  0  0  0  0  0  0  0  0  0  0  0
    3.2657   -3.1632   -1.5697 H   0  0  0  0  0  0  0  0  0  0  0  0
    1.2750   -1.1904    1.3891 H   0  0  0  0  0  0  0  0  0  0  0  0
    1.5858   -2.9816    1.1547 H   0  0  0  0  0  0  0  0  0  0  0  0
   -1.3682   -1.8528   -2.0190 H   0  0  0  0  0  0  0  0  0  0  0  0
   -0.5247   -2.6010    2.0551 H   0  0  0  0  0  0  0  0  0  0  0  0
   -3.6998   -2.1443   -1.5950 H   0  0  0  0  0  0  0  0  0  0  0  0
   -2.8446   -2.8930    2.4810 H   0  0  0  0  0  0  0  0  0  0  0  0
   -5.0556   -3.8058    1.1128 H   0  0  0  0  0  0  0  0  0  0  0  0
   -5.1337   -2.1182    1.7308 H   0  0  0  0  0  0  0  0  0  0  0  0
   -5.7869   -1.3115   -0.5739 H   0  0  0  0  0  0  0  0  0  0  0  0
   -5.7933   -3.0271   -1.1513 H   0  0  0  0  0  0  0  0  0  0  0  0
   -8.2507   -2.8049   -1.7471 H   0  0  0  0  0  0  0  0  0  0  0  0
   -8.2614   -1.1159   -1.1650 H   0  0  0  0  0  0  0  0  0  0  0  0
  -10.1005   -4.2431   -1.1308 H   0  0  0  0  0  0  0  0  0  0  0  0
   -7.5471   -3.5962    0.5589 H   0  0  0  0  0  0  0  0  0  0  0  0
   -7.5465   -1.8915    1.1334 H   0  0  0  0  0  0  0  0  0  0  0  0
  -12.4725   -3.7846    0.1082 H   0  0  0  0  0  0  0  0  0  0  0  0
  1 11  1  0      
  2 11  1  0      
  3 11  1  0      
 13  4  1  0      
 21  4  1  0      
  5 22  1  0      
  5 23  1  0      
 13  6  2  0      
  6 14  1  0      
  7  8  1  0      
  7 31  1  0      
  7 32  1  0      
  8  9  2  0      
  9 34  1  0      
 10 11  1  0      
 10 15  1  0      
 10 16  2  0      
 17 12  1  0      
 12 18  2  0      
 12 19  1  0      
 13 20  1  0      
 14 21  2  0      
 14 22  1  0      
 15 17  2  0      
 15 35  1  0      
 18 16  1  0      
 16 36  1  0      
 17 37  1  0      
 18 38  1  0      
 19 20  2  0      
 19 39  1  0      
 20 40  1  0      
 21 41  1  0      
 22 42  1  0      
 22 43  1  0      
 23 25  1  0      
 23 26  2  0      
 27 24  1  0      
 24 28  2  0      
 24 29  1  0      
 25 27  2  0      
 25 44  1  0      
 28 26  1  0      
 26 45  1  0      
 27 46  1  0      
 28 47  1  0      
 29 30  1  0      
 29 48  1  0      
 29 49  1  0      
 30 33  1  0      
 30 50  1  0      
 30 51  1  0      
 31 33  1  0      
 31 52  1  0      
 31 53  1  0      
 34 32  2  0      
 32 54  1  0      
 33 55  1  0      
 33 56  1  0      
 34 57  1  0      
M  END
