
  Chem3D Core 15.010061615383D

  0  0  0     0  0              0 V3000
M  V30 BEGIN CTAB
M  V30 COUNTS 50 52 0 0 0
M  V30 BEGIN ATOM
M  V30 1 Cl 5.849182 3.339156 0.683337 0
M  V30 2 O -2.223440 -3.087815 1.521897 0
M  V30 3 O -5.524003 -4.417836 0.929259 0
M  V30 4 C 1.486550 0.718607 0.026754 0
M  V30 5 C 2.810376 0.501638 0.276157 0
M  V30 6 C 0.559760 -0.211149 0.383562 0
M  V30 7 C 1.064197 1.910228 -0.469298 0
M  V30 8 C 3.367429 -0.738087 0.207379 0
M  V30 9 C 0.760489 -1.087055 1.389427 0
M  V30 10 C -0.628353 -0.327982 -0.244540 0
M  V30 11 C 3.663054 1.685820 0.758960 0
M  V30 12 C -0.102870 2.483083 -0.103725 0
M  V30 13 C 1.798842 2.588758 -1.373709 0
M  V30 14 C -1.340089 -2.121727 1.104155 0
M  V30 15 C -0.157235 -2.003198 1.733693 0
M  V30 16 C -1.543845 -1.247906 0.100410 0
M  V30 17 C 4.529182 -1.054150 0.818799 0
M  V30 18 C 2.809782 -1.730136 -0.522357 0
M  V30 19 C -0.505816 3.664880 -0.597399 0
M  V30 20 C 1.410492 3.769589 -1.879572 0
M  V30 21 C 5.081203 -2.275723 0.741386 0
M  V30 22 C 3.347002 -2.957112 -0.612924 0
M  V30 23 C 4.925426 2.002465 -0.054026 0
M  V30 24 C 0.251767 4.317312 -1.489421 0
M  V30 25 C 4.489249 -3.240508 0.025810 0
M  V30 26 C -3.473320 -3.185742 0.891212 0
M  V30 27 C -4.259432 -4.305616 1.550247 0
M  V30 28 H -6.023295 -5.124455 1.345333 0
M  V30 29 H 1.675498 -1.059237 2.004708 0
M  V30 30 H -0.877404 0.306914 -1.112572 0
M  V30 31 H 3.057658 2.615987 0.851576 0
M  V30 32 H 3.936909 1.483205 1.821248 0
M  V30 33 H -0.754242 2.024948 0.660053 0
M  V30 34 H 2.727889 2.157274 -1.774313 0
M  V30 35 H 0.060751 -2.683126 2.575794 0
M  V30 36 H -2.476367 -1.270487 -0.485974 0
M  V30 37 H 5.071779 -0.335191 1.451518 0
M  V30 38 H 1.899783 -1.568481 -1.123454 0
M  V30 39 H -1.457324 4.110157 -0.260410 0
M  V30 40 H 2.034325 4.282835 -2.630712 0
M  V30 41 H 6.023295 -2.493521 1.273045 0
M  V30 42 H 2.859561 -3.732472 -1.228210 0
M  V30 43 H 4.684903 2.299497 -1.091663 0
M  V30 44 H 5.606742 1.135054 -0.138442 0
M  V30 45 H -0.075625 5.286711 -1.900000 0
M  V30 46 H 4.939070 -4.244460 -0.045199 0
M  V30 47 H -4.026416 -2.225096 1.012729 0
M  V30 48 H -3.327003 -3.423088 -0.188462 0
M  V30 49 H -4.434326 -4.102897 2.630712 0
M  V30 50 H -3.744930 -5.286711 1.441626 0
M  V30 END ATOM
M  V30 BEGIN BOND
M  V30 1 1 1 23
M  V30 2 1 2 14
M  V30 3 1 2 26
M  V30 4 1 3 27
M  V30 5 1 3 28
M  V30 6 2 4 5
M  V30 7 1 4 6
M  V30 8 1 4 7
M  V30 9 1 5 8
M  V30 10 1 5 11
M  V30 11 1 6 9
M  V30 12 2 6 10
M  V30 13 1 7 12
M  V30 14 2 7 13
M  V30 15 1 8 17
M  V30 16 2 8 18
M  V30 17 2 9 15
M  V30 18 1 9 29
M  V30 19 1 16 10
M  V30 20 1 10 30
M  V30 21 1 11 23
M  V30 22 1 11 31
M  V30 23 1 11 32
M  V30 24 2 12 19
M  V30 25 1 12 33
M  V30 26 1 20 13
M  V30 27 1 13 34
M  V30 28 1 15 14
M  V30 29 2 14 16
M  V30 30 1 15 35
M  V30 31 1 16 36
M  V30 32 2 17 21
M  V30 33 1 17 37
M  V30 34 1 22 18
M  V30 35 1 18 38
M  V30 36 1 19 24
M  V30 37 1 19 39
M  V30 38 2 24 20
M  V30 39 1 20 40
M  V30 40 1 21 25
M  V30 41 1 21 41
M  V30 42 2 25 22
M  V30 43 1 22 42
M  V30 44 1 23 43
M  V30 45 1 23 44
M  V30 46 1 24 45
M  V30 47 1 25 46
M  V30 48 1 26 27
M  V30 49 1 26 47
M  V30 50 1 26 48
M  V30 51 1 27 49
M  V30 52 1 27 50
M  V30 END BOND
M  V30 END CTAB
M  END
