
  Chem3D Core 15.004181615323D

  0  0  0     0  0              0 V3000
M  V30 BEGIN CTAB
M  V30 COUNTS 54 57 0 0 0
M  V30 BEGIN ATOM
M  V30 1 S -6.158838 -3.112603 -0.622127 0
M  V30 2 O -7.369618 -2.403219 -0.197976 0
M  V30 3 O -6.216344 -4.436930 -1.250188 0
M  V30 4 N 5.249129 4.093784 0.609540 0
M  V30 5 N 0.062606 3.351351 -1.259131 0
M  V30 6 N 4.441877 4.628092 -0.160020 0
M  V30 7 N -2.083367 -0.225386 0.109018 0
M  V30 8 N -1.165851 1.555614 -0.665261 0
M  V30 9 N -3.129960 0.982544 -1.476167 0
M  V30 10 N -6.379768 -2.451517 -2.174180 0
M  V30 11 C 3.592961 2.911498 0.727883 0
M  V30 12 C 3.390901 3.925335 -0.114554 0
M  V30 13 C 4.839588 3.041991 1.202892 0
M  V30 14 C 1.178695 3.219438 -0.614068 0
M  V30 15 C 2.229864 4.068877 -0.766461 0
M  V30 16 C 2.611711 2.029494 0.915552 0
M  V30 17 C 1.458101 2.202170 0.243457 0
M  V30 18 C 5.535101 2.134089 2.177313 0
M  V30 19 C -0.996467 2.616154 -1.345810 0
M  V30 20 C -4.642185 -2.694531 0.226131 0
M  V30 21 C 6.619896 4.563470 0.884091 0
M  V30 22 C -4.154158 -3.480839 1.205734 0
M  V30 23 C -2.799129 -1.237896 0.400983 0
M  V30 24 C -0.039618 4.640719 -2.044894 0
M  V30 25 C -3.971898 -1.591500 -0.155283 0
M  V30 26 C -2.981150 -3.132748 1.762908 0
M  V30 27 C -2.313801 -2.038988 1.367224 0
M  V30 28 C -2.159889 0.762381 -0.693703 0
M  V30 29 C -2.033774 2.844192 -2.185124 0
M  V30 30 C -4.876786 -4.715903 1.701474 0
M  V30 31 C -3.074654 2.001763 -2.213867 0
M  V30 32 H -1.196999 -0.191207 0.677005 0
M  V30 33 H -6.524727 -3.195874 -2.855195 0
M  V30 34 H -7.226154 -1.884686 -2.198262 0
M  V30 35 H 2.257897 4.922920 -1.457822 0
M  V30 36 H 2.750378 1.175453 1.598315 0
M  V30 37 H 0.757460 1.398714 0.493573 0
M  V30 38 H 5.862631 2.706890 3.073858 0
M  V30 39 H 4.881078 1.307328 2.530222 0
M  V30 40 H 6.430190 1.673834 1.701487 0
M  V30 41 H 7.369618 3.782943 0.621420 0
M  V30 42 H 6.850411 5.465984 0.273540 0
M  V30 43 H 6.735027 4.844603 1.955629 0
M  V30 44 H 0.393023 5.520873 -1.523629 0
M  V30 45 H 0.375693 4.534978 -3.073858 0
M  V30 46 H -1.056508 5.082037 -2.082577 0
M  V30 47 H -4.413905 -0.987048 -0.958169 0
M  V30 48 H -2.548285 -3.752570 2.566145 0
M  V30 49 H -1.354918 -1.812254 1.866352 0
M  V30 50 H -2.111772 3.667345 -2.908985 0
M  V30 51 H -4.844381 -5.520873 0.932722 0
M  V30 52 H -4.424276 -5.132537 2.628875 0
M  V30 53 H -5.938510 -4.490236 1.949404 0
M  V30 54 H -3.925230 2.164113 -2.897574 0
M  V30 END ATOM
M  V30 BEGIN BOND
M  V30 1 2 1 2
M  V30 2 2 1 3
M  V30 3 1 1 10
M  V30 4 1 1 20
M  V30 5 1 4 6
M  V30 6 1 4 13
M  V30 7 1 4 21
M  V30 8 1 5 14
M  V30 9 1 5 19
M  V30 10 1 5 24
M  V30 11 2 12 6
M  V30 12 1 7 23
M  V30 13 1 7 28
M  V30 14 1 7 32
M  V30 15 1 19 8
M  V30 16 2 8 28
M  V30 17 1 28 9
M  V30 18 2 31 9
M  V30 19 1 10 33
M  V30 20 1 10 34
M  V30 21 1 11 12
M  V30 22 2 13 11
M  V30 23 1 11 16
M  V30 24 1 15 12
M  V30 25 1 13 18
M  V30 26 2 14 15
M  V30 27 1 17 14
M  V30 28 1 15 35
M  V30 29 2 16 17
M  V30 30 1 16 36
M  V30 31 1 17 37
M  V30 32 1 18 38
M  V30 33 1 18 39
M  V30 34 1 18 40
M  V30 35 2 29 19
M  V30 36 1 20 22
M  V30 37 2 20 25
M  V30 38 1 21 41
M  V30 39 1 21 42
M  V30 40 1 21 43
M  V30 41 2 22 26
M  V30 42 1 22 30
M  V30 43 1 23 25
M  V30 44 2 27 23
M  V30 45 1 24 44
M  V30 46 1 24 45
M  V30 47 1 24 46
M  V30 48 1 25 47
M  V30 49 1 26 27
M  V30 50 1 26 48
M  V30 51 1 27 49
M  V30 52 1 31 29
M  V30 53 1 29 50
M  V30 54 1 30 51
M  V30 55 1 30 52
M  V30 56 1 30 53
M  V30 57 1 31 54
M  V30 END BOND
M  V30 END CTAB
M  END
