
  Chem3D Core 15.001261617453D

 65 69  0  0  0  0  0  0  0  0999 V2000
   -6.9087   -4.9168    2.6195 F   0  0  0  0  0  0  0  0  0  0  0  0
   -6.5473   -3.6629    4.3117 F   0  0  0  0  0  0  0  0  0  0  0  0
   -4.9447   -4.1844    3.0085 F   0  0  0  0  0  0  0  0  0  0  0  0
   -3.5851    3.7204   -0.3090 O   0  0  0  0  0  0  0  0  0  0  0  0
   -7.7127   -2.8728   -1.6660 O   0  0  0  0  0  0  0  0  0  0  0  0
   -3.2243    1.5519   -0.7471 N   0  0  0  0  0  0  0  0  0  0  0  0
   -1.5434    2.9432    0.2116 N   0  0  0  0  0  0  0  0  0  0  0  0
    0.4721    2.0026    0.8020 N   0  0  0  0  0  0  0  0  0  0  0  0
    0.7928   -0.1646    0.9563 N   0  0  0  0  0  0  0  0  0  0  0  0
    2.4308    1.3412    1.3633 N   0  0  0  0  0  0  0  0  0  0  0  0
   -7.0613   -0.8510   -2.1404 N   0  0  0  0  0  0  0  0  0  0  0  0
    3.9970   -0.3830    1.8256 N   0  0  0  0  0  0  0  0  0  0  0  0
    5.1878   -0.4350    2.1594 N   0  0  0  0  0  0  0  0  0  0  0  0
   -2.6910    0.3982   -0.0187 C   0  0  0  0  0  0  0  0  0  0  0  0
   -1.2555    0.6415    0.3639 C   0  0  0  0  0  0  0  0  0  0  0  0
   -4.2686    1.4215   -1.6136 C   0  0  0  0  0  0  0  0  0  0  0  0
   -0.7445    1.8779    0.4676 C   0  0  0  0  0  0  0  0  0  0  0  0
   -2.8310    2.7821   -0.2592 C   0  0  0  0  0  0  0  0  0  0  0  0
   -4.4995    2.2684   -2.6460 C   0  0  0  0  0  0  0  0  0  0  0  0
   -5.1098    0.3733   -1.4780 C   0  0  0  0  0  0  0  0  0  0  0  0
   -0.4102   -0.3638    0.6301 C   0  0  0  0  0  0  0  0  0  0  0  0
   -1.0726    4.3178    0.4276 C   0  0  0  0  0  0  0  0  0  0  0  0
   -6.1879    0.1709   -2.2545 C   0  0  0  0  0  0  0  0  0  0  0  0
   -5.5543    2.0500   -3.4538 C   0  0  0  0  0  0  0  0  0  0  0  0
    1.2411    1.0172    1.0439 C   0  0  0  0  0  0  0  0  0  0  0  0
   -6.3916    1.0219   -3.2699 C   0  0  0  0  0  0  0  0  0  0  0  0
   -3.5738    3.4004   -3.0545 C   0  0  0  0  0  0  0  0  0  0  0  0
    3.5309    0.7947    1.6820 C   0  0  0  0  0  0  0  0  0  0  0  0
   -7.3015   -1.8269   -1.2220 C   0  0  0  0  0  0  0  0  0  0  0  0
    4.5825    1.5828    1.9642 C   0  0  0  0  0  0  0  0  0  0  0  0
    5.5936    0.7570    2.2565 C   0  0  0  0  0  0  0  0  0  0  0  0
   -6.9971   -1.6726    0.0995 C   0  0  0  0  0  0  0  0  0  0  0  0
    3.1930   -1.5951    1.6040 C   0  0  0  0  0  0  0  0  0  0  0  0
   -6.7654   -2.7468    0.8806 C   0  0  0  0  0  0  0  0  0  0  0  0
   -6.9755   -0.4566    0.6771 C   0  0  0  0  0  0  0  0  0  0  0  0
    6.9989    1.0928    2.6464 C   0  0  0  0  0  0  0  0  0  0  0  0
   -6.4495   -2.6351    2.1847 C   0  0  0  0  0  0  0  0  0  0  0  0
   -6.6928   -0.3233    1.9812 C   0  0  0  0  0  0  0  0  0  0  0  0
   -6.4375   -1.4058    2.7291 C   0  0  0  0  0  0  0  0  0  0  0  0
   -6.2290   -3.8621    3.0420 C   0  0  0  0  0  0  0  0  0  0  0  0
    2.5442    2.3897    1.3674 H   0  0  0  0  0  0  0  0  0  0  0  0
   -7.6384   -0.9081   -2.9657 H   0  0  0  0  0  0  0  0  0  0  0  0
   -2.7086   -0.5141   -0.6606 H   0  0  0  0  0  0  0  0  0  0  0  0
   -3.2786    0.2217    0.9134 H   0  0  0  0  0  0  0  0  0  0  0  0
   -4.9269   -0.3651   -0.6864 H   0  0  0  0  0  0  0  0  0  0  0  0
   -0.7420   -1.4135    0.5759 H   0  0  0  0  0  0  0  0  0  0  0  0
   -1.1876    4.9168   -0.5049 H   0  0  0  0  0  0  0  0  0  0  0  0
   -1.6543    4.8000    1.2463 H   0  0  0  0  0  0  0  0  0  0  0  0
   -0.0019    4.3915    0.7130 H   0  0  0  0  0  0  0  0  0  0  0  0
   -5.7371    2.7195   -4.3117 H   0  0  0  0  0  0  0  0  0  0  0  0
   -7.2395    0.8815   -3.9619 H   0  0  0  0  0  0  0  0  0  0  0  0
   -2.5235    3.2505   -2.7223 H   0  0  0  0  0  0  0  0  0  0  0  0
   -3.4982    3.4719   -4.1633 H   0  0  0  0  0  0  0  0  0  0  0  0
   -3.9523    4.3843   -2.6973 H   0  0  0  0  0  0  0  0  0  0  0  0
    4.6229    2.6796    1.9604 H   0  0  0  0  0  0  0  0  0  0  0  0
    2.3618   -1.6646    2.3412 H   0  0  0  0  0  0  0  0  0  0  0  0
    2.8389   -1.6550    0.5503 H   0  0  0  0  0  0  0  0  0  0  0  0
    3.8166   -2.5042    1.7642 H   0  0  0  0  0  0  0  0  0  0  0  0
   -6.7998   -3.7630    0.4553 H   0  0  0  0  0  0  0  0  0  0  0  0
   -7.2256    0.4601    0.1182 H   0  0  0  0  0  0  0  0  0  0  0  0
    7.1369    2.1930    2.7457 H   0  0  0  0  0  0  0  0  0  0  0  0
    7.2551    0.6238    3.6235 H   0  0  0  0  0  0  0  0  0  0  0  0
    7.7127    0.7222    1.8761 H   0  0  0  0  0  0  0  0  0  0  0  0
   -6.6916    0.6777    2.4453 H   0  0  0  0  0  0  0  0  0  0  0  0
   -6.2231   -1.2708    3.8018 H   0  0  0  0  0  0  0  0  0  0  0  0
  1 40  1  0      
  2 40  1  0      
  3 40  1  0      
  4 18  2  0      
  5 29  2  0      
 14  6  1  0      
  6 16  1  0      
  6 18  1  0      
  7 17  1  0      
 18  7  1  0      
  7 22  1  0      
 17  8  1  0      
 25  8  2  0      
  9 21  2  0      
 25  9  1  0      
 10 25  1  0      
 10 28  1  0      
 10 41  1  0      
 11 23  1  0      
 11 29  1  0      
 11 42  1  0      
 12 13  1  0      
 28 12  1  0      
 12 33  1  0      
 31 13  2  0      
 15 14  1  0      
 14 43  1  0      
 14 44  1  0      
 15 17  2  0      
 21 15  1  0      
 16 19  1  0      
 16 20  2  0      
 19 24  2  0      
 19 27  1  0      
 23 20  1  0      
 20 45  1  0      
 21 46  1  0      
 22 47  1  0      
 22 48  1  0      
 22 49  1  0      
 26 23  2  0      
 24 26  1  0      
 24 50  1  0      
 26 51  1  0      
 27 52  1  0      
 27 53  1  0      
 27 54  1  0      
 30 28  2  0      
 29 32  1  0      
 31 30  1  0      
 30 55  1  0      
 31 36  1  0      
 32 34  1  0      
 32 35  2  0      
 33 56  1  0      
 33 57  1  0      
 33 58  1  0      
 34 37  2  0      
 34 59  1  0      
 38 35  1  0      
 35 60  1  0      
 36 61  1  0      
 36 62  1  0      
 36 63  1  0      
 37 39  1  0      
 37 40  1  0      
 39 38  2  0      
 38 64  1  0      
 39 65  1  0      
M  END
