
  Chem3D Core 14.008141513373D

 42 44  0  0  0  0  0  0  0  0999 V2000
   -0.0687    2.7059    0.0583 O   0  0  0  0  0  0  0  0  0  0  0  0
   -0.4064    1.6755   -0.4783 C   0  0  0  0  0  0  0  0  0  0  0  0
   -0.5718    0.4674    0.1470 C   0  0  0  0  0  0  0  0  0  0  0  0
    0.0143    0.1491    1.3404 C   0  0  0  0  0  0  0  0  0  0  0  0
    0.8371    0.9905    1.8395 N   0  0  0  0  0  0  0  0  0  0  0  0
    1.4900    1.2610    2.9026 C   0  0  0  0  0  0  0  0  0  0  0  0
    1.3068    0.7264    4.1251 C   0  0  0  0  0  0  0  0  0  0  0  0
    2.0271    1.1009    5.1945 C   0  0  0  0  0  0  0  0  0  0  0  0
    2.9615    2.0527    5.0714 C   0  0  0  0  0  0  0  0  0  0  0  0
    3.9819    2.5928    6.5713 Br  0  0  0  0  0  0  0  0  0  0  0  0
    3.1517    2.6237    3.8738 C   0  0  0  0  0  0  0  0  0  0  0  0
    2.4179    2.2431    2.8126 C   0  0  0  0  0  0  0  0  0  0  0  0
    2.8113    3.0141    1.3064 Cl  0  0  0  0  0  0  0  0  0  0  0  0
   -0.2619   -1.0559    1.8992 C   0  0  0  0  0  0  0  0  0  0  0  0
    0.3370   -1.5314    2.9757 F   0  0  0  0  0  0  0  0  0  0  0  0
   -1.0977   -1.9080    1.2889 C   0  0  0  0  0  0  0  0  0  0  0  0
   -1.4734   -3.0690    1.6397 N   0  0  0  0  0  0  0  0  0  0  0  0
   -2.2647   -3.4698    0.7354 C   0  0  0  0  0  0  0  0  0  0  0  0
   -2.3734   -2.5835   -0.1610 N   0  0  0  0  0  0  0  0  0  0  0  0
   -3.2049   -2.7094   -1.3624 C   0  0  0  0  0  0  0  0  0  0  0  0
   -1.6605   -1.5789    0.1223 C   0  0  0  0  0  0  0  0  0  0  0  0
   -1.4066   -0.4068   -0.4586 C   0  0  0  0  0  0  0  0  0  0  0  0
   -0.5254    1.6366   -1.8488 N   0  0  0  0  0  0  0  0  0  0  0  0
   -0.5486    2.7097   -2.6155 O   0  0  0  0  0  0  0  0  0  0  0  0
   -0.9710    2.4116   -3.9198 C   0  0  0  0  0  0  0  0  0  0  0  0
   -0.9980    3.6904   -4.7362 C   0  0  0  0  0  0  0  0  0  0  0  0
   -1.4305    3.3941   -6.0483 O   0  0  0  0  0  0  0  0  0  0  0  0
    1.0768    1.7293    1.1319 H   0  0  0  0  0  0  0  0  0  0  0  0
    0.5069    0.0089    4.3412 H   0  0  0  0  0  0  0  0  0  0  0  0
    1.8216    0.6400    6.1758 H   0  0  0  0  0  0  0  0  0  0  0  0
    3.9229    3.4055    3.7648 H   0  0  0  0  0  0  0  0  0  0  0  0
   -2.7840   -4.4342    0.7131 H   0  0  0  0  0  0  0  0  0  0  0  0
   -2.5777   -2.6213   -2.2787 H   0  0  0  0  0  0  0  0  0  0  0  0
   -3.7280   -3.6912   -1.4053 H   0  0  0  0  0  0  0  0  0  0  0  0
   -3.9819   -1.9113   -1.3798 H   0  0  0  0  0  0  0  0  0  0  0  0
   -1.9371   -0.1987   -1.4010 H   0  0  0  0  0  0  0  0  0  0  0  0
   -0.6577    0.7298   -2.2724 H   0  0  0  0  0  0  0  0  0  0  0  0
   -0.2631    1.6781   -4.3725 H   0  0  0  0  0  0  0  0  0  0  0  0
   -1.9894    1.9585   -3.8775 H   0  0  0  0  0  0  0  0  0  0  0  0
   -1.7075    4.4342   -4.3092 H   0  0  0  0  0  0  0  0  0  0  0  0
    0.0131    4.1497   -4.8116 H   0  0  0  0  0  0  0  0  0  0  0  0
   -1.4444    4.1990   -6.5713 H   0  0  0  0  0  0  0  0  0  0  0  0
  1  2  2  0      
  2  3  1  0      
  2 23  1  0      
  3  4  2  0      
  3 22  1  0      
  4  5  1  0      
  4 14  1  0      
  5  6  1  0      
 28  5  1  0      
  6  7  2  0      
  6 12  1  0      
  7  8  1  0      
 29  7  1  0      
  8  9  2  0      
 30  8  1  0      
  9 10  1  0      
  9 11  1  0      
 11 12  2  0      
 31 11  1  0      
 12 13  1  0      
 14 15  1  0      
 14 16  2  0      
 16 17  1  0      
 16 21  1  0      
 17 18  2  0      
 18 19  1  0      
 32 18  1  0      
 19 20  1  0      
 19 21  1  0      
 33 20  1  0      
 34 20  1  0      
 35 20  1  0      
 21 22  2  0      
 36 22  1  0      
 23 24  1  0      
 37 23  1  0      
 24 25  1  0      
 25 26  1  0      
 38 25  1  0      
 39 25  1  0      
 26 27  1  0      
 40 26  1  0      
 41 26  1  0      
 42 27  1  0      
M  END
