
  Chem3D Core 14.008141513373D

 66 70  0  0  0  0  0  0  0  0999 V2000
   -1.9202   -0.3148    0.9149 C   0  0  0  0  0  0  0  0  0  0  0  0
   -0.6341   -1.0197    0.6353 C   0  0  0  0  0  0  0  0  0  0  0  0
   -1.7011    0.9861    1.0917 C   0  0  0  0  0  0  0  0  0  0  0  0
    0.3047    0.2027    0.5656 C   0  0  0  0  0  0  0  0  0  0  0  0
   -0.5243    1.3112    0.9516 O   0  0  0  0  0  0  0  0  0  0  0  0
   -0.1334   -1.9254    1.7499 C   0  0  0  0  0  0  0  0  0  0  0  0
    1.3361   -1.5405    1.9606 C   0  0  0  0  0  0  0  0  0  0  0  0
    1.3388   -0.0237    1.6937 C   0  0  0  0  0  0  0  0  0  0  0  0
    1.8679   -1.9578    3.3253 C   0  0  0  0  0  0  0  0  0  0  0  0
    1.2891   -2.7598    4.0165 O   0  0  0  0  0  0  0  0  0  0  0  0
    0.9633    0.4383   -0.7858 C   0  0  0  0  0  0  0  0  0  0  0  0
    1.6546   -0.5244   -1.4199 C   0  0  0  0  0  0  0  0  0  0  0  0
    0.9119    1.6367   -1.3935 C   0  0  0  0  0  0  0  0  0  0  0  0
    2.2500   -0.2974   -2.5998 C   0  0  0  0  0  0  0  0  0  0  0  0
    1.5101    1.8572   -2.5750 C   0  0  0  0  0  0  0  0  0  0  0  0
    2.1991    0.8960   -3.2206 C   0  0  0  0  0  0  0  0  0  0  0  0
    2.8412    1.0444   -4.4266 O   0  0  0  0  0  0  0  0  0  0  0  0
    2.7990    2.2992   -5.0658 C   0  0  0  0  0  0  0  0  0  0  0  0
   -0.8432   -1.6654    2.9397 O   0  0  0  0  0  0  0  0  0  0  0  0
    4.9829    2.0257    1.0379 C   0  0  0  0  0  0  0  0  0  0  0  0
    4.8908    0.7239    0.7309 C   0  0  0  0  0  0  0  0  0  0  0  0
    3.9158    2.6593    1.5451 C   0  0  0  0  0  0  0  0  0  0  0  0
    3.7400    0.0640    0.9319 C   0  0  0  0  0  0  0  0  0  0  0  0
    2.7710    1.9888    1.7450 C   0  0  0  0  0  0  0  0  0  0  0  0
    2.6605    0.6803    1.4487 C   0  0  0  0  0  0  0  0  0  0  0  0
    3.0509   -1.3640    3.6898 N   0  0  0  0  0  0  0  0  0  0  0  0
    3.5986   -1.4518    4.8864 O   0  0  0  0  0  0  0  0  0  0  0  0
    4.4488   -2.5682    5.0129 C   0  0  0  0  0  0  0  0  0  0  0  0
   -0.7791   -1.7278   -0.5693 O   0  0  0  0  0  0  0  0  0  0  0  0
   -3.1378   -0.8723    0.9777 C   0  0  0  0  0  0  0  0  0  0  0  0
   -4.1278   -0.0144    1.2990 C   0  0  0  0  0  0  0  0  0  0  0  0
   -2.7159    1.8058    1.3908 C   0  0  0  0  0  0  0  0  0  0  0  0
   -3.9661    1.3115    1.5086 C   0  0  0  0  0  0  0  0  0  0  0  0
   -3.2593   -2.2231    0.7689 O   0  0  0  0  0  0  0  0  0  0  0  0
   -4.4591   -2.8562    1.1439 C   0  0  0  0  0  0  0  0  0  0  0  0
   -5.0774    2.0595    1.8213 O   0  0  0  0  0  0  0  0  0  0  0  0
   -4.9232    3.4396    2.0586 C   0  0  0  0  0  0  0  0  0  0  0  0
   -0.2728   -3.0068    1.5269 H   0  0  0  0  0  0  0  0  0  0  0  0
    1.9305   -2.0947    1.1994 H   0  0  0  0  0  0  0  0  0  0  0  0
    0.9159    0.4089    2.6369 H   0  0  0  0  0  0  0  0  0  0  0  0
    1.7526   -1.5258   -0.9738 H   0  0  0  0  0  0  0  0  0  0  0  0
    0.3765    2.4773   -0.9232 H   0  0  0  0  0  0  0  0  0  0  0  0
    2.8082   -1.1206   -3.0785 H   0  0  0  0  0  0  0  0  0  0  0  0
    1.4187    2.8697   -2.9995 H   0  0  0  0  0  0  0  0  0  0  0  0
    3.3729    2.2161   -6.0160 H   0  0  0  0  0  0  0  0  0  0  0  0
    1.7494    2.5705   -5.3172 H   0  0  0  0  0  0  0  0  0  0  0  0
    3.2872    3.0729   -4.4321 H   0  0  0  0  0  0  0  0  0  0  0  0
   -0.5328   -2.2586    3.6288 H   0  0  0  0  0  0  0  0  0  0  0  0
    5.9264    2.5714    0.8707 H   0  0  0  0  0  0  0  0  0  0  0  0
    5.7632    0.1969    0.3090 H   0  0  0  0  0  0  0  0  0  0  0  0
    3.9797    3.7314    1.7959 H   0  0  0  0  0  0  0  0  0  0  0  0
    3.7095   -1.0021    0.6620 H   0  0  0  0  0  0  0  0  0  0  0  0
    1.9056    2.5330    2.1589 H   0  0  0  0  0  0  0  0  0  0  0  0
    3.4792   -0.7428    3.0187 H   0  0  0  0  0  0  0  0  0  0  0  0
    4.9297   -2.5314    6.0160 H   0  0  0  0  0  0  0  0  0  0  0  0
    3.8604   -3.5087    4.9266 H   0  0  0  0  0  0  0  0  0  0  0  0
    5.2372   -2.5335    4.2275 H   0  0  0  0  0  0  0  0  0  0  0  0
   -1.6549   -2.1268   -0.5458 H   0  0  0  0  0  0  0  0  0  0  0  0
   -5.1571   -0.3957    1.3979 H   0  0  0  0  0  0  0  0  0  0  0  0
   -2.4881    2.8727    1.5341 H   0  0  0  0  0  0  0  0  0  0  0  0
   -4.3304   -3.9502    0.9844 H   0  0  0  0  0  0  0  0  0  0  0  0
   -4.6652   -2.6786    2.2230 H   0  0  0  0  0  0  0  0  0  0  0  0
   -5.2978   -2.5094    0.5004 H   0  0  0  0  0  0  0  0  0  0  0  0
   -5.9264    3.8567    2.3012 H   0  0  0  0  0  0  0  0  0  0  0  0
   -4.2559    3.6097    2.9329 H   0  0  0  0  0  0  0  0  0  0  0  0
   -4.5477    3.9502    1.1439 H   0  0  0  0  0  0  0  0  0  0  0  0
  1  2  1  0      
  3  1  1  0      
 30  1  2  0      
  2  4  1  0      
  6  2  1  0      
  2 29  1  0      
  3  5  1  0      
 32  3  2  0      
  4  5  1  0      
  8  4  1  0      
  4 11  1  0      
  7  6  1  0      
  6 19  1  0      
  6 38  1  0      
  8  7  1  0      
  7  9  1  0      
  7 39  1  0      
  8 25  1  0      
  8 40  1  0      
 10  9  2  0      
  9 26  1  0      
 11 12  1  0      
 11 13  2  0      
 12 14  2  0      
 12 41  1  0      
 15 13  1  0      
 13 42  1  0      
 14 16  1  0      
 14 43  1  0      
 16 15  2  0      
 15 44  1  0      
 16 17  1  0      
 17 18  1  0      
 18 45  1  0      
 18 46  1  0      
 18 47  1  0      
 19 48  1  0      
 20 21  1  0      
 20 22  2  0      
 20 49  1  0      
 21 23  2  0      
 21 50  1  0      
 24 22  1  0      
 22 51  1  0      
 23 25  1  0      
 23 52  1  0      
 25 24  2  0      
 24 53  1  0      
 26 27  1  0      
 26 54  1  0      
 27 28  1  0      
 28 55  1  0      
 28 56  1  0      
 28 57  1  0      
 29 58  1  0      
 31 30  1  0      
 30 34  1  0      
 33 31  2  0      
 31 59  1  0      
 32 33  1  0      
 32 60  1  0      
 33 36  1  0      
 34 35  1  0      
 35 61  1  0      
 35 62  1  0      
 35 63  1  0      
 36 37  1  0      
 37 64  1  0      
 37 65  1  0      
 37 66  1  0      
M  END
