
  Chem3D Core 14.008171522523D

 48 50  0  0  0  0  0  0  0  0999 V2000
    5.4523    0.8416    0.2981 C   0  0  0  0  0  0  0  0  0  0  0  0
    5.5348    0.2495    1.5018 C   0  0  0  0  0  0  0  0  0  0  0  0
    5.8195    0.0801   -0.7503 C   0  0  0  0  0  0  0  0  0  0  0  0
    5.9557   -1.0207    1.5723 C   0  0  0  0  0  0  0  0  0  0  0  0
    6.2334   -1.1939   -0.5946 C   0  0  0  0  0  0  0  0  0  0  0  0
    6.2876   -1.7074    0.5648 N   0  0  0  0  0  0  0  0  0  0  0  0
    5.0317    2.1358    0.1493 O   0  0  0  0  0  0  0  0  0  0  0  0
    1.5092    2.0977   -0.6452 C   0  0  0  0  0  0  0  0  0  0  0  0
    0.9514    2.6027    0.4681 C   0  0  0  0  0  0  0  0  0  0  0  0
    2.8400    1.9487   -0.7446 C   0  0  0  0  0  0  0  0  0  0  0  0
    1.7801    2.9522    1.4688 C   0  0  0  0  0  0  0  0  0  0  0  0
    3.6750    2.2888    0.2543 C   0  0  0  0  0  0  0  0  0  0  0  0
    3.1084    2.7987    1.3626 C   0  0  0  0  0  0  0  0  0  0  0  0
    6.5957   -1.9350   -1.6834 C   0  0  0  0  0  0  0  0  0  0  0  0
    6.9921   -3.2054   -1.3698 N   0  0  0  0  0  0  0  0  0  0  0  0
    7.4214   -4.1680   -2.3837 C   0  0  0  0  0  0  0  0  0  0  0  0
    6.5834   -1.5486   -2.8288 O   0  0  0  0  0  0  0  0  0  0  0  0
   -0.3617    2.8076    0.7026 N   0  0  0  0  0  0  0  0  0  0  0  0
   -1.4934    2.5768   -0.0300 C   0  0  0  0  0  0  0  0  0  0  0  0
   -2.6424    2.9803    0.5936 N   0  0  0  0  0  0  0  0  0  0  0  0
   -1.4804    2.0688   -1.1169 O   0  0  0  0  0  0  0  0  0  0  0  0
   -3.9474    2.9427    0.2481 C   0  0  0  0  0  0  0  0  0  0  0  0
   -4.4654    2.4514   -0.8893 C   0  0  0  0  0  0  0  0  0  0  0  0
   -4.8029    3.4561    1.1529 C   0  0  0  0  0  0  0  0  0  0  0  0
   -5.7897    2.4795   -1.1003 C   0  0  0  0  0  0  0  0  0  0  0  0
   -6.1379    3.5004    0.9733 C   0  0  0  0  0  0  0  0  0  0  0  0
   -6.6204    2.9974   -0.1819 C   0  0  0  0  0  0  0  0  0  0  0  0
   -8.3144    2.9935   -0.5353 Cl  0  0  0  0  0  0  0  0  0  0  0  0
   -7.0348    4.0989    2.0470 C   0  0  0  0  0  0  0  0  0  0  0  0
   -7.7213    5.1241    1.5655 F   0  0  0  0  0  0  0  0  0  0  0  0
   -6.3699    4.5388    3.1040 F   0  0  0  0  0  0  0  0  0  0  0  0
   -7.9063    3.2014    2.4821 F   0  0  0  0  0  0  0  0  0  0  0  0
    5.2604    0.7973    2.4178 H   0  0  0  0  0  0  0  0  0  0  0  0
    5.7654    0.5480   -1.7472 H   0  0  0  0  0  0  0  0  0  0  0  0
    6.0276   -1.5239    2.5515 H   0  0  0  0  0  0  0  0  0  0  0  0
    0.9098    1.7922   -1.5141 H   0  0  0  0  0  0  0  0  0  0  0  0
    3.2627    1.5342   -1.6759 H   0  0  0  0  0  0  0  0  0  0  0  0
    1.3741    3.3750    2.4043 H   0  0  0  0  0  0  0  0  0  0  0  0
    3.7528    3.0982    2.2067 H   0  0  0  0  0  0  0  0  0  0  0  0
    6.9859   -3.4874   -0.3902 H   0  0  0  0  0  0  0  0  0  0  0  0
    6.5972   -4.3726   -3.1040 H   0  0  0  0  0  0  0  0  0  0  0  0
    8.3144   -3.7897   -2.9307 H   0  0  0  0  0  0  0  0  0  0  0  0
    7.6955   -5.1241   -1.8840 H   0  0  0  0  0  0  0  0  0  0  0  0
   -0.4867    3.2122    1.6198 H   0  0  0  0  0  0  0  0  0  0  0  0
   -2.5396    3.4020    1.5058 H   0  0  0  0  0  0  0  0  0  0  0  0
   -3.8438    2.0129   -1.6820 H   0  0  0  0  0  0  0  0  0  0  0  0
   -4.3796    3.8600    2.0878 H   0  0  0  0  0  0  0  0  0  0  0  0
   -6.1850    2.0677   -2.0452 H   0  0  0  0  0  0  0  0  0  0  0  0
  2  1  1  0      
  3  1  2  0      
  1  7  1  0      
  4  2  2  0      
 33  2  1  0      
  5  3  1  0      
 34  3  1  0      
  6  4  1  0      
 35  4  1  0      
  6  5  2  0      
  5 14  1  0      
  7 12  1  0      
  9  8  1  0      
 10  8  2  0      
 36  8  1  0      
 11  9  2  0      
  9 18  1  0      
 12 10  1  0      
 37 10  1  0      
 13 11  1  0      
 38 11  1  0      
 13 12  2  0      
 39 13  1  0      
 14 15  1  0      
 14 17  2  0      
 15 16  1  0      
 40 15  1  0      
 41 16  1  0      
 42 16  1  0      
 43 16  1  0      
 18 19  1  0      
 44 18  1  0      
 19 20  1  0      
 19 21  2  0      
 20 22  1  0      
 45 20  1  0      
 23 22  1  0      
 24 22  2  0      
 25 23  2  0      
 46 23  1  0      
 26 24  1  0      
 47 24  1  0      
 27 25  1  0      
 48 25  1  0      
 27 26  2  0      
 26 29  1  0      
 27 28  1  0      
 29 30  1  0      
 29 31  1  0      
 29 32  1  0      
M  END
