
  Chem3D Core 14.008171511353D

 56 58  0  0  0  0  0  0  0  0999 V2000
    1.4539    2.2824   -3.4692 O   0  0  0  0  0  0  0  0  0  0  0  0
    0.9717    1.6445   -2.5637 C   0  0  0  0  0  0  0  0  0  0  0  0
   -0.1869    1.9655   -1.9269 C   0  0  0  0  0  0  0  0  0  0  0  0
   -0.8238    3.1441   -2.0519 C   0  0  0  0  0  0  0  0  0  0  0  0
   -0.4375    4.3461   -2.8675 C   0  0  0  0  0  0  0  0  0  0  0  0
   -1.8379    3.0656   -1.2940 N   0  0  0  0  0  0  0  0  0  0  0  0
   -1.9685    1.9646   -0.6813 C   0  0  0  0  0  0  0  0  0  0  0  0
   -2.9346    1.6159    0.1860 C   0  0  0  0  0  0  0  0  0  0  0  0
   -4.0569    2.2146    0.6288 C   0  0  0  0  0  0  0  0  0  0  0  0
   -4.6463    3.3863    0.2575 C   0  0  0  0  0  0  0  0  0  0  0  0
   -5.6819    3.5721    0.9615 N   0  0  0  0  0  0  0  0  0  0  0  0
   -5.8539    2.6121    1.7670 C   0  0  0  0  0  0  0  0  0  0  0  0
   -4.8605    1.7290    1.5954 C   0  0  0  0  0  0  0  0  0  0  0  0
   -4.8280    0.6191    2.3486 C   0  0  0  0  0  0  0  0  0  0  0  0
   -5.7982    0.4155    3.2583 C   0  0  0  0  0  0  0  0  0  0  0  0
   -5.7778   -0.6762    4.0074 F   0  0  0  0  0  0  0  0  0  0  0  0
   -6.7875    1.3140    3.4131 C   0  0  0  0  0  0  0  0  0  0  0  0
   -6.8273    2.4294    2.6658 C   0  0  0  0  0  0  0  0  0  0  0  0
   -4.3559    4.1913   -0.5973 O   0  0  0  0  0  0  0  0  0  0  0  0
   -0.9135    1.2142   -1.0702 C   0  0  0  0  0  0  0  0  0  0  0  0
   -0.6731   -0.2195   -0.6590 C   0  0  0  0  0  0  0  0  0  0  0  0
    1.6522    0.5912   -2.0265 N   0  0  0  0  0  0  0  0  0  0  0  0
    2.9337    0.1150   -2.5563 C   0  0  0  0  0  0  0  0  0  0  0  0
    3.2595   -1.2520   -1.9258 C   0  0  0  0  0  0  0  0  0  0  0  0
    4.3786   -1.9714   -2.5347 N   0  0  0  0  0  0  0  0  0  0  0  0
    4.6112   -3.2532   -1.8685 C   0  0  0  0  0  0  0  0  0  0  0  0
    3.3873   -4.1830   -1.7990 C   0  0  0  0  0  0  0  0  0  0  0  0
    5.5921   -1.1547   -2.5582 C   0  0  0  0  0  0  0  0  0  0  0  0
    6.8224   -1.8340   -3.1843 C   0  0  0  0  0  0  0  0  0  0  0  0
   -2.7621    0.6346    0.6550 H   0  0  0  0  0  0  0  0  0  0  0  0
   -0.5589    4.1417   -3.9551 H   0  0  0  0  0  0  0  0  0  0  0  0
   -1.0942    5.2099   -2.6167 H   0  0  0  0  0  0  0  0  0  0  0  0
    0.6085    4.6621   -2.6553 H   0  0  0  0  0  0  0  0  0  0  0  0
   -2.4828    3.8768   -1.1970 H   0  0  0  0  0  0  0  0  0  0  0  0
   -6.3083    4.4029    0.8740 H   0  0  0  0  0  0  0  0  0  0  0  0
   -4.0295   -0.1313    2.2454 H   0  0  0  0  0  0  0  0  0  0  0  0
   -7.5755    1.1342    4.1633 H   0  0  0  0  0  0  0  0  0  0  0  0
   -7.6332    3.1706    2.7872 H   0  0  0  0  0  0  0  0  0  0  0  0
   -0.2577   -0.8260   -1.4936 H   0  0  0  0  0  0  0  0  0  0  0  0
    0.0077   -0.2675    0.2209 H   0  0  0  0  0  0  0  0  0  0  0  0
   -1.6072   -0.7617   -0.4003 H   0  0  0  0  0  0  0  0  0  0  0  0
    1.2947    0.1762   -1.1700 H   0  0  0  0  0  0  0  0  0  0  0  0
    2.8690    0.0023   -3.6644 H   0  0  0  0  0  0  0  0  0  0  0  0
    3.7106    0.8734   -2.3048 H   0  0  0  0  0  0  0  0  0  0  0  0
    3.4312   -1.1120   -0.8316 H   0  0  0  0  0  0  0  0  0  0  0  0
    2.3286   -1.8572   -2.0409 H   0  0  0  0  0  0  0  0  0  0  0  0
    5.3837   -3.8284   -2.4330 H   0  0  0  0  0  0  0  0  0  0  0  0
    5.0046   -3.0950   -0.8358 H   0  0  0  0  0  0  0  0  0  0  0  0
    2.8904   -4.2702   -2.7925 H   0  0  0  0  0  0  0  0  0  0  0  0
    3.6878   -5.2099   -1.4855 H   0  0  0  0  0  0  0  0  0  0  0  0
    2.6358   -3.8414   -1.0522 H   0  0  0  0  0  0  0  0  0  0  0  0
    5.4137   -0.2456   -3.1811 H   0  0  0  0  0  0  0  0  0  0  0  0
    5.8536   -0.8072   -1.5300 H   0  0  0  0  0  0  0  0  0  0  0  0
    6.5697   -2.3022   -4.1633 H   0  0  0  0  0  0  0  0  0  0  0  0
    7.6332   -1.0915   -3.3695 H   0  0  0  0  0  0  0  0  0  0  0  0
    7.2631   -2.6107   -2.5197 H   0  0  0  0  0  0  0  0  0  0  0  0
  1  2  2  0      
  2  3  1  0      
  2 22  1  0      
  3  4  2  0      
  3 20  1  0      
  4  5  1  0      
  4  6  1  0      
 31  5  1  0      
 32  5  1  0      
 33  5  1  0      
  6  7  1  0      
 34  6  1  0      
  7  8  1  0      
  7 20  2  0      
  8  9  2  0      
 30  8  1  0      
  9 10  1  0      
  9 13  1  0      
 10 11  1  0      
 10 19  2  0      
 11 12  1  0      
 35 11  1  0      
 12 13  2  0      
 12 18  1  0      
 13 14  1  0      
 14 15  2  0      
 36 14  1  0      
 15 16  1  0      
 15 17  1  0      
 17 18  2  0      
 37 17  1  0      
 38 18  1  0      
 20 21  1  0      
 39 21  1  0      
 40 21  1  0      
 41 21  1  0      
 22 23  1  0      
 42 22  1  0      
 23 24  1  0      
 43 23  1  0      
 44 23  1  0      
 24 25  1  0      
 45 24  1  0      
 46 24  1  0      
 25 26  1  0      
 25 28  1  0      
 26 27  1  0      
 47 26  1  0      
 48 26  1  0      
 49 27  1  0      
 50 27  1  0      
 51 27  1  0      
 28 29  1  0      
 52 28  1  0      
 53 28  1  0      
 54 29  1  0      
 55 29  1  0      
 56 29  1  0      
M  END
