
  Chem3D Core 14.010291516063D

  0  0  0     0  0              0 V3000
M  V30 BEGIN CTAB
M  V30 COUNTS 126 129 0 0 0
M  V30 BEGIN ATOM
M  V30 1 C 3.402118 1.192302 -0.803046 0
M  V30 2 C 3.608325 1.147646 0.526649 0
M  V30 3 C 4.939049 1.002005 1.230149 0
M  V30 4 C 4.760769 0.438910 2.651409 0
M  V30 5 C 6.118620 0.318133 3.357816 0
M  V30 6 C 6.817898 1.673782 3.384504 0
M  V30 7 C 7.015991 2.243118 1.985374 0
M  V30 8 C 5.663926 2.359871 1.275610 0
M  V30 9 O 7.648113 3.485689 2.143442 0
M  V30 10 O 8.082918 1.544541 3.988989 0
M  V30 11 C 8.165279 4.025055 0.946551 0
M  V30 12 C 2.015255 1.395814 -1.402400 0
M  V30 13 C 4.524234 1.120124 -1.817230 0
M  V30 14 C 1.837991 2.821402 -1.970899 0
M  V30 15 C 0.445954 3.085539 -2.580139 0
M  V30 16 C -0.045922 2.021684 -3.566160 0
M  V30 17 C -1.396083 2.387610 -4.175715 0
M  V30 18 C -2.578202 1.481036 -3.851255 0
M  V30 19 C -2.798136 1.462666 -2.357271 0
M  V30 20 C -3.076264 2.498070 -1.544718 0
M  V30 21 C -3.258472 3.930801 -1.980804 0
M  V30 22 C -3.169838 2.274223 -0.050337 0
M  V30 23 C -4.317051 1.337990 0.382085 0
M  V30 24 C -5.689347 1.946943 0.057342 0
M  V30 25 C -4.173306 1.023379 1.885278 0
M  V30 26 C -5.051633 -0.098425 2.467616 0
M  V30 27 C -4.988947 -1.411420 1.659863 0
M  V30 28 C -5.643709 -2.610832 2.361892 0
M  V30 29 C -4.912723 -3.913990 2.021553 0
M  V30 30 C -4.359254 -3.911380 0.589784 0
M  V30 31 C -3.436607 -2.701637 0.389023 0
M  V30 32 O -3.655559 -1.678702 1.340620 0
M  V30 33 O -6.995191 -2.653619 1.983416 0
M  V30 34 O -4.667824 -0.371813 3.793792 0
M  V30 35 C -4.813956 0.706835 4.692307 0
M  V30 36 C -7.836268 -3.279626 2.928932 0
M  V30 37 O -3.739670 -2.102458 -0.864270 0
M  V30 38 C -1.922887 -3.050961 0.518167 0
M  V30 39 C -0.993700 -2.335178 -0.171343 0
M  V30 40 N 0.357268 -2.465812 0.061592 0
M  V30 41 C 1.017509 -3.745054 0.323718 0
M  V30 42 C 1.287346 -1.362641 -0.240522 0
M  V30 43 C 1.849459 -1.663197 -1.641086 0
M  V30 44 C 2.089345 -3.173030 -1.854075 0
M  V30 45 C 2.309869 -3.873243 -0.505459 0
M  V30 46 O -1.332784 -1.450127 -0.925551 0
M  V30 47 O -1.620724 -3.940909 1.289456 0
M  V30 48 C -5.497751 -4.052694 -0.441165 0
M  V30 49 C 0.676030 0.002504 0.160690 0
M  V30 50 O -0.101440 0.019938 1.096431 0
M  V30 51 O 0.959724 1.159221 -0.508407 0
M  V30 52 C 2.163134 3.887155 -0.905009 0
M  V30 53 O 0.474788 4.328332 -3.251224 0
M  V30 54 O -1.493000 3.380056 -4.860036 0
M  V30 55 C -3.877065 1.754699 -4.627376 0
M  V30 56 C -4.913491 0.704312 -4.308574 0
M  V30 57 C -6.094363 0.969578 -3.732714 0
M  V30 58 H 2.749408 1.276150 1.203369 0
M  V30 59 H 5.568877 0.269160 0.671189 0
M  V30 60 H 4.099191 1.110578 3.248494 0
M  V30 61 H 4.266643 -0.561341 2.607301 0
M  V30 62 H 5.975244 -0.058235 4.398629 0
M  V30 63 H 6.756051 -0.424794 2.822655 0
M  V30 64 H 6.233876 2.389773 4.009302 0
M  V30 65 H 7.688141 1.557457 1.416691 0
M  V30 66 H 5.025216 3.104728 1.806296 0
M  V30 67 H 5.800518 2.727312 0.232901 0
M  V30 68 H 8.518432 2.400961 3.944329 0
M  V30 69 H 8.730882 4.947584 1.206921 0
M  V30 70 H 8.864148 3.307728 0.462790 0
M  V30 71 H 7.344938 4.309815 0.253860 0
M  V30 72 H 1.900321 0.715917 -2.270028 0
M  V30 73 H 5.503883 0.816173 -1.395309 0
M  V30 74 H 4.290936 0.389746 -2.622985 0
M  V30 75 H 4.677661 2.114889 -2.291225 0
M  V30 76 H 2.572348 2.947769 -2.806596 0
M  V30 77 H -0.303012 3.182471 -1.760194 0
M  V30 78 H -0.144253 1.031720 -3.067775 0
M  V30 79 H 0.690181 1.904637 -4.395194 0
M  V30 80 H -2.225902 0.465464 -4.165853 0
M  V30 81 H -2.675139 0.473005 -1.890705 0
M  V30 82 H -3.151926 4.094249 -3.070773 0
M  V30 83 H -4.272326 4.288679 -1.691562 0
M  V30 84 H -2.500689 4.579497 -1.486076 0
M  V30 85 H -2.186422 1.849529 0.263468 0
M  V30 86 H -3.266536 3.246586 0.484804 0
M  V30 87 H -4.215531 0.392805 -0.197806 0
M  V30 88 H -5.785112 2.170036 -1.028503 0
M  V30 89 H -5.851128 2.898255 0.612509 0
M  V30 90 H -6.516645 1.250369 0.320674 0
M  V30 91 H -3.109616 0.754500 2.093093 0
M  V30 92 H -4.367472 1.980680 2.422919 0
M  V30 93 H -6.119884 0.227705 2.482302 0
M  V30 94 H -5.526009 -1.225967 0.699344 0
M  V30 95 H -5.597505 -2.502692 3.468613 0
M  V30 96 H -4.048146 -4.024800 2.720945 0
M  V30 97 H -5.547045 -4.811842 2.194508 0
M  V30 98 H -3.763033 -4.849547 0.451077 0
M  V30 99 H -4.717727 0.302307 5.724892 0
M  V30 100 H -4.001228 1.451134 4.549712 0
M  V30 101 H -5.816839 1.176483 4.590015 0
M  V30 102 H -8.864148 -3.309361 2.503088 0
M  V30 103 H -7.507482 -4.321210 3.131320 0
M  V30 104 H -7.863659 -2.686553 3.870228 0
M  V30 105 H -3.281876 -1.265182 -0.947592 0
M  V30 106 H 0.365995 -4.586633 -0.013410 0
M  V30 107 H 1.225968 -3.862576 1.412168 0
M  V30 108 H 2.133801 -1.426527 0.489544 0
M  V30 109 H 2.842388 -1.173193 -1.755884 0
M  V30 110 H 1.154730 -1.301251 -2.434875 0
M  V30 111 H 1.202535 -3.634494 -2.352052 0
M  V30 112 H 2.958214 -3.341481 -2.533698 0
M  V30 113 H 2.572482 -4.947584 -0.655000 0
M  V30 114 H 3.178011 -3.411236 0.020394 0
M  V30 115 H -5.098494 -4.217488 -1.468207 0
M  V30 116 H -6.144369 -4.929184 -0.207148 0
M  V30 117 H -6.158749 -3.160096 -0.480026 0
M  V30 118 H 2.069309 4.919432 -1.310424 0
M  V30 119 H 3.206532 3.796460 -0.528631 0
M  V30 120 H 1.477980 3.805585 -0.031200 0
M  V30 121 H -0.304532 4.443121 -3.802688 0
M  V30 122 H -3.678788 1.721957 -5.724892 0
M  V30 123 H -4.276610 2.768144 -4.405014 0
M  V30 124 H -4.664584 -0.340853 -4.560486 0
M  V30 125 H -6.812361 0.164762 -3.511833 0
M  V30 126 H -6.381185 1.996450 -3.461464 0
M  V30 END ATOM
M  V30 BEGIN BOND
M  V30 1 2 1 2
M  V30 2 1 1 12
M  V30 3 1 1 13
M  V30 4 1 3 2
M  V30 5 1 2 58
M  V30 6 1 3 4
M  V30 7 1 3 8
M  V30 8 1 3 59
M  V30 9 1 4 5
M  V30 10 1 4 60
M  V30 11 1 4 61
M  V30 12 1 5 6
M  V30 13 1 5 62
M  V30 14 1 5 63
M  V30 15 1 6 7
M  V30 16 1 6 10
M  V30 17 1 6 64
M  V30 18 1 7 8
M  V30 19 1 7 9
M  V30 20 1 7 65
M  V30 21 1 8 66
M  V30 22 1 8 67
M  V30 23 1 9 11
M  V30 24 1 10 68
M  V30 25 1 11 69
M  V30 26 1 11 70
M  V30 27 1 11 71
M  V30 28 1 12 14
M  V30 29 1 12 51
M  V30 30 1 12 72
M  V30 31 1 13 73
M  V30 32 1 13 74
M  V30 33 1 13 75
M  V30 34 1 14 15
M  V30 35 1 14 52
M  V30 36 1 14 76
M  V30 37 1 15 16
M  V30 38 1 15 53
M  V30 39 1 15 77
M  V30 40 1 16 17
M  V30 41 1 16 78
M  V30 42 1 16 79
M  V30 43 1 17 18
M  V30 44 2 17 54
M  V30 45 1 18 19
M  V30 46 1 18 55
M  V30 47 1 18 80
M  V30 48 2 19 20
M  V30 49 1 19 81
M  V30 50 1 20 21
M  V30 51 1 20 22
M  V30 52 1 21 82
M  V30 53 1 21 83
M  V30 54 1 21 84
M  V30 55 1 22 23
M  V30 56 1 22 85
M  V30 57 1 22 86
M  V30 58 1 23 24
M  V30 59 1 23 25
M  V30 60 1 23 87
M  V30 61 1 24 88
M  V30 62 1 24 89
M  V30 63 1 24 90
M  V30 64 1 25 26
M  V30 65 1 25 91
M  V30 66 1 25 92
M  V30 67 1 26 27
M  V30 68 1 26 34
M  V30 69 1 26 93
M  V30 70 1 27 28
M  V30 71 1 27 32
M  V30 72 1 27 94
M  V30 73 1 28 29
M  V30 74 1 28 33
M  V30 75 1 28 95
M  V30 76 1 29 30
M  V30 77 1 29 96
M  V30 78 1 29 97
M  V30 79 1 30 31
M  V30 80 1 30 48
M  V30 81 1 30 98
M  V30 82 1 31 32
M  V30 83 1 31 37
M  V30 84 1 31 38
M  V30 85 1 33 36
M  V30 86 1 34 35
M  V30 87 1 35 99
M  V30 88 1 35 100
M  V30 89 1 35 101
M  V30 90 1 36 102
M  V30 91 1 36 103
M  V30 92 1 36 104
M  V30 93 1 37 105
M  V30 94 1 38 39
M  V30 95 2 38 47
M  V30 96 1 39 40
M  V30 97 2 39 46
M  V30 98 1 41 40
M  V30 99 1 42 40
M  V30 100 1 41 45
M  V30 101 1 41 106
M  V30 102 1 41 107
M  V30 103 1 42 43
M  V30 104 1 42 49
M  V30 105 1 42 108
M  V30 106 1 43 44
M  V30 107 1 43 109
M  V30 108 1 43 110
M  V30 109 1 44 45
M  V30 110 1 44 111
M  V30 111 1 44 112
M  V30 112 1 45 113
M  V30 113 1 45 114
M  V30 114 1 48 115
M  V30 115 1 48 116
M  V30 116 1 48 117
M  V30 117 2 49 50
M  V30 118 1 49 51
M  V30 119 1 52 118
M  V30 120 1 52 119
M  V30 121 1 52 120
M  V30 122 1 53 121
M  V30 123 1 55 56
M  V30 124 1 55 122
M  V30 125 1 55 123
M  V30 126 2 56 57
M  V30 127 1 56 124
M  V30 128 1 57 125
M  V30 129 1 57 126
M  V30 END BOND
M  V30 END CTAB
M  END
