
  Chem3D Core 15.008141513093D

 85 86  0  0  0  0  0  0  0  0999 V2000
   -0.6451    4.1587    0.4554 C   0  0  0  0  0  0  0  0  0  0  0  0
   -1.5093    3.4207    1.2161 C   0  0  0  0  0  0  0  0  0  0  0  0
    0.1111    1.6997    1.4316 C   0  0  0  0  0  0  0  0  0  0  0  0
    0.9696    2.4100    0.6406 C   0  0  0  0  0  0  0  0  0  0  0  0
    0.5696    3.6081    0.1924 C   0  0  0  0  0  0  0  0  0  0  0  0
   -0.8757    5.2544   -0.0237 O   0  0  0  0  0  0  0  0  0  0  0  0
    0.4750    0.6161    1.8530 O   0  0  0  0  0  0  0  0  0  0  0  0
    2.1617    1.8300    0.3682 N   0  0  0  0  0  0  0  0  0  0  0  0
    3.3043    2.2644   -0.2409 C   0  0  0  0  0  0  0  0  0  0  0  0
    3.4560    3.4276   -0.5267 O   0  0  0  0  0  0  0  0  0  0  0  0
    4.2724    1.3357   -0.5125 C   0  0  0  0  0  0  0  0  0  0  0  0
    5.5157    1.8768   -1.2042 C   0  0  0  0  0  0  0  0  0  0  0  0
    4.1147    0.0320   -0.1931 C   0  0  0  0  0  0  0  0  0  0  0  0
    4.9656   -0.9743   -0.4615 C   0  0  0  0  0  0  0  0  0  0  0  0
    4.7976   -2.2716   -0.1470 C   0  0  0  0  0  0  0  0  0  0  0  0
    3.6723   -2.9272    0.6337 C   0  0  0  0  0  0  0  0  0  0  0  0
    4.2472   -3.6517    1.7063 O   0  0  0  0  0  0  0  0  0  0  0  0
    4.7619   -2.8181    2.7228 C   0  0  0  0  0  0  0  0  0  0  0  0
    2.8490   -3.8937   -0.2446 C   0  0  0  0  0  0  0  0  0  0  0  0
    2.3098   -4.9692    0.5041 O   0  0  0  0  0  0  0  0  0  0  0  0
    1.6654   -4.7490    1.6847 C   0  0  0  0  0  0  0  0  0  0  0  0
    1.2501   -3.6753    2.0455 O   0  0  0  0  0  0  0  0  0  0  0  0
    1.5436   -5.8068    2.5243 N   0  0  0  0  0  0  0  0  0  0  0  0
    0.4855   -3.3572   -0.9434 C   0  0  0  0  0  0  0  0  0  0  0  0
   -0.7176   -2.6235   -1.5120 C   0  0  0  0  0  0  0  0  0  0  0  0
    1.8095   -3.1770   -1.1183 C   0  0  0  0  0  0  0  0  0  0  0  0
    2.3779   -2.2414   -2.1573 C   0  0  0  0  0  0  0  0  0  0  0  0
   -2.7899    0.2213    0.3215 C   0  0  0  0  0  0  0  0  0  0  0  0
   -1.1247    2.2144    1.7030 C   0  0  0  0  0  0  0  0  0  0  0  0
   -2.0390    1.3179    2.5445 C   0  0  0  0  0  0  0  0  0  0  0  0
   -2.5027    0.0249    1.8278 C   0  0  0  0  0  0  0  0  0  0  0  0
   -3.7050   -0.5926    2.5651 C   0  0  0  0  0  0  0  0  0  0  0  0
   -2.5320   -0.9846   -0.6045 C   0  0  0  0  0  0  0  0  0  0  0  0
   -3.4644   -2.0140   -0.4031 O   0  0  0  0  0  0  0  0  0  0  0  0
   -4.7605   -1.7326   -0.8861 C   0  0  0  0  0  0  0  0  0  0  0  0
   -1.1330   -1.5949   -0.4433 C   0  0  0  0  0  0  0  0  0  0  0  0
   -0.1419   -0.5939   -0.3505 O   0  0  0  0  0  0  0  0  0  0  0  0
   -0.6183   -2.0424   -2.9278 C   0  0  0  0  0  0  0  0  0  0  0  0
   -2.6934    3.8264    1.4666 N   0  0  0  0  0  0  0  0  0  0  0  0
   -3.3744    5.0721    1.0569 C   0  0  0  0  0  0  0  0  0  0  0  0
   -4.7893    5.0164    1.5743 C   0  0  0  0  0  0  0  0  0  0  0  0
   -5.2983    5.8789    2.4652 C   0  0  0  0  0  0  0  0  0  0  0  0
    1.2254    4.2085   -0.4550 H   0  0  0  0  0  0  0  0  0  0  0  0
    2.1304    0.8773    0.6952 H   0  0  0  0  0  0  0  0  0  0  0  0
    5.9728    2.6950   -0.6018 H   0  0  0  0  0  0  0  0  0  0  0  0
    6.3396    1.1547   -1.3651 H   0  0  0  0  0  0  0  0  0  0  0  0
    5.2535    2.2772   -2.2105 H   0  0  0  0  0  0  0  0  0  0  0  0
    3.1977   -0.2767    0.3232 H   0  0  0  0  0  0  0  0  0  0  0  0
    5.8975   -0.7692   -1.0104 H   0  0  0  0  0  0  0  0  0  0  0  0
    5.5883   -2.9742   -0.4710 H   0  0  0  0  0  0  0  0  0  0  0  0
    2.9754   -2.1762    1.0617 H   0  0  0  0  0  0  0  0  0  0  0  0
    5.1919   -3.4713    3.5145 H   0  0  0  0  0  0  0  0  0  0  0  0
    5.5683   -2.1637    2.3264 H   0  0  0  0  0  0  0  0  0  0  0  0
    3.9466   -2.2083    3.1716 H   0  0  0  0  0  0  0  0  0  0  0  0
    3.5522   -4.4012   -0.9517 H   0  0  0  0  0  0  0  0  0  0  0  0
    1.0911   -5.6558    3.4135 H   0  0  0  0  0  0  0  0  0  0  0  0
    1.9149   -6.7013    2.2413 H   0  0  0  0  0  0  0  0  0  0  0  0
    0.1641   -4.0904   -0.1868 H   0  0  0  0  0  0  0  0  0  0  0  0
   -1.5219   -3.4022   -1.5815 H   0  0  0  0  0  0  0  0  0  0  0  0
    3.4596   -2.4188   -2.3354 H   0  0  0  0  0  0  0  0  0  0  0  0
    1.9268   -2.4188   -3.1552 H   0  0  0  0  0  0  0  0  0  0  0  0
    2.2370   -1.1785   -1.8629 H   0  0  0  0  0  0  0  0  0  0  0  0
   -2.1464    1.0325   -0.0861 H   0  0  0  0  0  0  0  0  0  0  0  0
   -3.8127    0.6396    0.1957 H   0  0  0  0  0  0  0  0  0  0  0  0
   -1.5071    1.0568    3.4905 H   0  0  0  0  0  0  0  0  0  0  0  0
   -2.9399    1.8325    2.9329 H   0  0  0  0  0  0  0  0  0  0  0  0
   -1.6682   -0.7039    1.9427 H   0  0  0  0  0  0  0  0  0  0  0  0
   -3.4858   -0.7256    3.6493 H   0  0  0  0  0  0  0  0  0  0  0  0
   -3.9687   -1.5960    2.1642 H   0  0  0  0  0  0  0  0  0  0  0  0
   -4.6078    0.0535    2.4784 H   0  0  0  0  0  0  0  0  0  0  0  0
   -2.6221   -0.6276   -1.6577 H   0  0  0  0  0  0  0  0  0  0  0  0
   -5.3748   -2.6521   -0.7597 H   0  0  0  0  0  0  0  0  0  0  0  0
   -5.2391   -0.9211   -0.2987 H   0  0  0  0  0  0  0  0  0  0  0  0
   -4.7295   -1.4775   -1.9683 H   0  0  0  0  0  0  0  0  0  0  0  0
   -1.1191   -2.1250    0.5385 H   0  0  0  0  0  0  0  0  0  0  0  0
    0.3336   -0.6900    0.4832 H   0  0  0  0  0  0  0  0  0  0  0  0
   -1.6157   -1.7298   -3.3102 H   0  0  0  0  0  0  0  0  0  0  0  0
   -0.2467   -2.8051   -3.6493 H   0  0  0  0  0  0  0  0  0  0  0  0
    0.0265   -1.1383   -2.9746 H   0  0  0  0  0  0  0  0  0  0  0  0
   -3.3129    3.2028    2.0316 H   0  0  0  0  0  0  0  0  0  0  0  0
   -2.8537    5.9584    1.4870 H   0  0  0  0  0  0  0  0  0  0  0  0
   -3.4365    5.1482   -0.0539 H   0  0  0  0  0  0  0  0  0  0  0  0
   -5.4308    4.2042    1.1900 H   0  0  0  0  0  0  0  0  0  0  0  0
   -6.3396    5.7880    2.8114 H   0  0  0  0  0  0  0  0  0  0  0  0
   -4.6954    6.7013    2.8783 H   0  0  0  0  0  0  0  0  0  0  0  0
  1  2  1  0      
  1  5  1  0      
  1  6  2  0      
  2 29  2  0      
  2 39  1  0      
  3  4  1  0      
  3  7  2  0      
  3 29  1  0      
  4  5  2  0      
  4  8  1  0      
  5 43  1  0      
  8  9  1  0      
  8 44  1  0      
  9 10  2  0      
  9 11  1  0      
 11 12  1  0      
 11 13  2  0      
 12 45  1  0      
 12 46  1  0      
 12 47  1  0      
 13 14  1  0      
 13 48  1  0      
 14 15  2  0      
 14 49  1  0      
 15 16  1  0      
 15 50  1  0      
 16 17  1  0      
 16 19  1  0      
 16 51  1  0      
 17 18  1  0      
 18 52  1  0      
 18 53  1  0      
 18 54  1  0      
 19 20  1  0      
 19 26  1  0      
 19 55  1  0      
 20 21  1  0      
 21 22  2  0      
 21 23  1  0      
 23 56  1  0      
 23 57  1  0      
 24 25  1  0      
 24 26  2  0      
 24 58  1  0      
 25 36  1  0      
 25 38  1  0      
 25 59  1  0      
 26 27  1  0      
 27 60  1  0      
 27 61  1  0      
 27 62  1  0      
 28 31  1  0      
 28 33  1  0      
 28 63  1  0      
 28 64  1  0      
 29 30  1  0      
 30 31  1  0      
 30 65  1  0      
 30 66  1  0      
 31 32  1  0      
 31 67  1  0      
 32 68  1  0      
 32 69  1  0      
 32 70  1  0      
 33 34  1  0      
 33 36  1  0      
 33 71  1  0      
 34 35  1  0      
 35 72  1  0      
 35 73  1  0      
 35 74  1  0      
 36 37  1  0      
 36 75  1  0      
 37 76  1  0      
 38 77  1  0      
 38 78  1  0      
 38 79  1  0      
 39 40  1  0      
 39 80  1  0      
 40 41  1  0      
 40 81  1  0      
 40 82  1  0      
 41 42  2  0      
 41 83  1  0      
 42 84  1  0      
 42 85  1  0      
M  END
