
  Chem3D Core 14.010291510493D

  0  0  0     0  0              0 V3000
M  V30 BEGIN CTAB
M  V30 COUNTS 87 91 0 0 0
M  V30 BEGIN ATOM
M  V30 1 F 0.339876 3.711068 -6.839942 0
M  V30 2 F 1.917805 4.140576 -5.467905 0
M  V30 3 F -0.028083 4.977172 -5.150132 0
M  V30 4 O 0.034769 0.066560 0.168378 0
M  V30 5 O -1.946949 1.037809 -0.227582 0
M  V30 6 O 1.932607 0.530855 2.676449 0
M  V30 7 O -3.360100 2.875247 -3.012124 0
M  V30 8 O -2.626302 -2.366811 0.098847 0
M  V30 9 O -2.550073 0.403988 4.759839 0
M  V30 10 O 0.113366 -1.105462 5.136888 0
M  V30 11 O 3.151289 -0.244438 5.339091 0
M  V30 12 O -5.070289 -2.767951 0.559263 0
M  V30 13 O -5.003533 -0.165978 5.012467 0
M  V30 14 O 0.713197 1.560803 -4.913060 0
M  V30 15 O -7.416183 -3.512617 0.891443 0
M  V30 16 O 5.069477 0.727378 6.018976 0
M  V30 17 N -0.687989 2.910865 -3.758011 0
M  V30 18 C -0.331449 -1.096492 0.878070 0
M  V30 19 C 0.847817 -0.308876 3.002808 0
M  V30 20 C 0.746400 -1.399604 1.929789 0
M  V30 21 C -0.406045 0.558690 3.060554 0
M  V30 22 C -1.651317 -0.991167 1.641679 0
M  V30 23 C -1.648488 -0.255461 2.759964 0
M  V30 24 C -0.860392 0.408358 -0.869856 0
M  V30 25 C -1.203096 1.879574 -2.853733 0
M  V30 26 C -0.181477 1.384796 -1.819436 0
M  V30 27 C -2.390438 2.458900 -2.083218 0
M  V30 28 C -2.953737 1.425190 -1.119671 0
M  V30 29 C 1.051048 -0.940343 4.386250 0
M  V30 30 C -2.763866 -1.643928 1.252221 0
M  V30 31 C -2.719858 -0.240851 3.568905 0
M  V30 32 C -3.888386 -1.565585 2.018030 0
M  V30 33 C -3.856164 -0.874377 3.182677 0
M  V30 34 C -4.121557 1.969582 -0.296357 0
M  V30 35 C 2.469887 -1.349114 4.779947 0
M  V30 36 C -5.045867 -2.190976 1.626674 0
M  V30 37 C -4.969619 -0.804984 3.975681 0
M  V30 38 C -6.161231 -2.151285 2.422384 0
M  V30 39 C -6.100995 -1.460463 3.580546 0
M  V30 40 C 0.237208 2.657274 -4.726402 0
M  V30 41 C -7.315743 -2.789030 2.060852 0
M  V30 42 C -7.189227 -1.402635 4.375991 0
M  V30 43 C 0.619155 3.895853 -5.558348 0
M  V30 44 C -8.370647 -2.701419 2.896214 0
M  V30 45 C -8.325123 -2.019369 4.042346 0
M  V30 46 C 4.499625 -0.242406 5.563064 0
M  V30 47 C 5.232087 -1.534985 5.217222 0
M  V30 48 C 6.707578 -1.549249 5.655937 0
M  V30 49 C -8.602324 -4.199643 0.564709 0
M  V30 50 C 7.399375 -2.876522 5.303351 0
M  V30 51 C 8.870826 -2.886513 5.738767 0
M  V30 52 H 1.781233 0.940136 1.821185 0
M  V30 53 H -4.050588 3.378131 -2.575328 0
M  V30 54 H -3.270756 -3.063467 -0.066027 0
M  V30 55 H -1.614180 0.314773 5.013103 0
M  V30 56 H -1.068826 3.853167 -3.664182 0
M  V30 57 H -0.301736 -1.949786 0.161151 0
M  V30 58 H 1.734438 -1.558534 1.436935 0
M  V30 59 H 0.489302 -2.374385 2.411205 0
M  V30 60 H -0.432325 1.147938 4.001937 0
M  V30 61 H -0.366126 1.366410 2.293849 0
M  V30 62 H -1.192448 -0.504937 -1.410650 0
M  V30 63 H -1.563812 1.016981 -3.465758 0
M  V30 64 H 0.226535 2.252360 -1.249096 0
M  V30 65 H 0.678805 0.881806 -2.318674 0
M  V30 66 H -2.076066 3.370277 -1.522960 0
M  V30 67 H -3.309290 0.524566 -1.675963 0
M  V30 68 H -3.818103 2.866389 0.290239 0
M  V30 69 H -4.491864 1.204060 0.424477 0
M  V30 70 H -4.979184 2.256751 -0.945820 0
M  V30 71 H 2.984886 -1.715967 3.866013 0
M  V30 72 H 2.414505 -2.165272 5.535879 0
M  V30 73 H -7.227113 -0.861778 5.335845 0
M  V30 74 H -9.332905 -3.189444 2.677693 0
M  V30 75 H -9.208967 -1.968113 4.701073 0
M  V30 76 H 4.723421 -2.392767 5.715677 0
M  V30 77 H 5.202926 -1.675934 4.111173 0
M  V30 78 H 7.255004 -0.712759 5.159010 0
M  V30 79 H 6.769666 -1.387004 6.758750 0
M  V30 80 H -8.432916 -4.716869 -0.406519 0
M  V30 81 H -8.827698 -4.977172 1.328377 0
M  V30 82 H -9.443560 -3.484707 0.424515 0
M  V30 83 H 6.864739 -3.721507 5.799687 0
M  V30 84 H 7.341731 -3.047715 4.201728 0
M  V30 85 H 9.358558 -3.853796 5.477197 0
M  V30 86 H 9.443560 -2.072408 5.238545 0
M  V30 87 H 8.964943 -2.746603 6.839942 0
M  V30 END ATOM
M  V30 BEGIN BOND
M  V30 1 1 1 43
M  V30 2 1 2 43
M  V30 3 1 3 43
M  V30 4 1 18 4
M  V30 5 1 4 24
M  V30 6 1 24 5
M  V30 7 1 28 5
M  V30 8 1 19 6
M  V30 9 1 6 52
M  V30 10 1 7 27
M  V30 11 1 7 53
M  V30 12 1 8 30
M  V30 13 1 8 54
M  V30 14 1 9 31
M  V30 15 1 9 55
M  V30 16 2 10 29
M  V30 17 1 11 35
M  V30 18 1 11 46
M  V30 19 2 12 36
M  V30 20 2 13 37
M  V30 21 2 14 40
M  V30 22 1 15 41
M  V30 23 1 15 49
M  V30 24 2 16 46
M  V30 25 1 17 25
M  V30 26 1 17 40
M  V30 27 1 17 56
M  V30 28 1 20 18
M  V30 29 1 18 22
M  V30 30 1 18 57
M  V30 31 1 19 20
M  V30 32 1 19 21
M  V30 33 1 19 29
M  V30 34 1 20 58
M  V30 35 1 20 59
M  V30 36 1 23 21
M  V30 37 1 21 60
M  V30 38 1 21 61
M  V30 39 2 22 23
M  V30 40 1 22 30
M  V30 41 1 31 23
M  V30 42 1 24 26
M  V30 43 1 24 62
M  V30 44 1 26 25
M  V30 45 1 25 27
M  V30 46 1 25 63
M  V30 47 1 26 64
M  V30 48 1 26 65
M  V30 49 1 27 28
M  V30 50 1 27 66
M  V30 51 1 28 34
M  V30 52 1 28 67
M  V30 53 1 29 35
M  V30 54 2 30 32
M  V30 55 2 33 31
M  V30 56 1 32 33
M  V30 57 1 32 36
M  V30 58 1 37 33
M  V30 59 1 34 68
M  V30 60 1 34 69
M  V30 61 1 34 70
M  V30 62 1 35 71
M  V30 63 1 35 72
M  V30 64 1 36 38
M  V30 65 1 39 37
M  V30 66 2 38 39
M  V30 67 1 38 41
M  V30 68 1 42 39
M  V30 69 1 40 43
M  V30 70 2 41 44
M  V30 71 2 45 42
M  V30 72 1 42 73
M  V30 73 1 44 45
M  V30 74 1 44 74
M  V30 75 1 45 75
M  V30 76 1 46 47
M  V30 77 1 47 48
M  V30 78 1 47 76
M  V30 79 1 47 77
M  V30 80 1 48 50
M  V30 81 1 48 78
M  V30 82 1 48 79
M  V30 83 1 49 80
M  V30 84 1 49 81
M  V30 85 1 49 82
M  V30 86 1 50 51
M  V30 87 1 50 83
M  V30 88 1 50 84
M  V30 89 1 51 85
M  V30 90 1 51 86
M  V30 91 1 51 87
M  V30 END BOND
M  V30 END CTAB
M  END
