
  Chem3D Core 14.010291511043D

  0  0  0     0  0              0 V3000
M  V30 BEGIN CTAB
M  V30 COUNTS 71 72 0 0 0
M  V30 BEGIN ATOM
M  V30 1 O 0.278526 -6.284533 3.512012 0
M  V30 2 O -2.175724 -5.911664 4.934750 0
M  V30 3 O -0.615451 6.344649 -3.039360 0
M  V30 4 O -1.090292 5.134335 -5.586632 0
M  V30 5 N -1.186523 0.871781 0.923656 0
M  V30 6 N 4.042093 -2.819133 4.405956 0
M  V30 7 C 1.627580 -1.742038 4.321188 0
M  V30 8 C 1.629215 -0.641490 5.421992 0
M  V30 9 C 1.442754 -1.182727 2.887630 0
M  V30 10 C 0.098778 -0.476562 2.631039 0
M  V30 11 C 0.587563 -2.850421 4.524784 0
M  V30 12 C -0.019569 0.026090 1.178830 0
M  V30 13 C 1.892476 -1.216965 6.829522 0
M  V30 14 C 2.630558 0.503175 5.162942 0
M  V30 15 C 2.979481 -2.358755 4.368559 0
M  V30 16 C 0.761783 -4.076073 4.000581 0
M  V30 17 C -0.574401 -2.663404 5.169098 0
M  V30 18 C -1.114316 1.420338 -0.430891 0
M  V30 19 C -0.111748 -5.099711 4.101279 0
M  V30 20 C -2.434212 0.156024 1.149910 0
M  V30 21 C -1.455687 -3.663403 5.304627 0
M  V30 22 C -2.222948 2.434089 -0.770068 0
M  V30 23 C -1.253598 -4.900448 4.807357 0
M  V30 24 C -1.920689 3.151651 -2.069696 0
M  V30 25 C -1.408651 4.391110 -2.092102 0
M  V30 26 C -2.151510 2.567708 -3.252585 0
M  V30 27 C -1.112868 5.070620 -3.219635 0
M  V30 28 C -0.197708 -7.517661 3.996763 0
M  V30 29 C -1.880365 3.225618 -4.387545 0
M  V30 30 C -1.380321 4.479307 -4.413393 0
M  V30 31 C -3.446437 -5.640715 5.478638 0
M  V30 32 C -0.805666 7.333923 -4.023223 0
M  V30 33 C -1.168057 4.447840 -6.814082 0
M  V30 34 H 0.626482 -0.148961 5.447741 0
M  V30 35 H 2.275186 -0.484022 2.642081 0
M  V30 36 H 1.538307 -2.018355 2.153002 0
M  V30 37 H -0.719685 -1.198867 2.851020 0
M  V30 38 H -0.015554 0.393650 3.318270 0
M  V30 39 H 0.907506 0.613292 0.969019 0
M  V30 40 H -0.011395 -0.849853 0.487083 0
M  V30 41 H 1.765072 -0.434962 7.612680 0
M  V30 42 H 1.198354 -2.045484 7.090329 0
M  V30 43 H 2.929333 -1.609774 6.925522 0
M  V30 44 H 2.621607 1.239651 5.998804 0
M  V30 45 H 2.384525 1.080915 4.244602 0
M  V30 46 H 3.673888 0.128223 5.067298 0
M  V30 47 H 1.685303 -4.273012 3.429936 0
M  V30 48 H -0.839089 -1.684944 5.597211 0
M  V30 49 H -0.144731 1.964462 -0.547442 0
M  V30 50 H -1.119835 0.600659 -1.188516 0
M  V30 51 H -3.317977 0.816142 1.012893 0
M  V30 52 H -2.523376 -0.196188 2.200393 0
M  V30 53 H -2.537133 -0.720447 0.470213 0
M  V30 54 H -2.378904 -3.416938 5.852830 0
M  V30 55 H -3.211610 1.931966 -0.881799 0
M  V30 56 H -2.329188 3.166743 0.063753 0
M  V30 57 H -1.212967 4.883892 -1.124022 0
M  V30 58 H -2.564370 1.545885 -3.291229 0
M  V30 59 H 0.442743 -8.319122 3.564366 0
M  V30 60 H -0.105689 -7.562350 5.104672 0
M  V30 61 H -1.234525 -7.707592 3.644198 0
M  V30 62 H -2.096131 2.678190 -5.318581 0
M  V30 63 H -4.042093 -6.579819 5.427700 0
M  V30 64 H -3.358282 -5.351336 6.549427 0
M  V30 65 H -3.970161 -4.866016 4.875229 0
M  V30 66 H -0.574360 8.319122 -3.559081 0
M  V30 67 H -0.091959 7.197887 -4.864363 0
M  V30 68 H -1.866519 7.351429 -4.358251 0
M  V30 69 H -0.829963 5.145866 -7.612680 0
M  V30 70 H -0.485403 3.568921 -6.811387 0
M  V30 71 H -2.220542 4.162572 -7.035308 0
M  V30 END ATOM
M  V30 BEGIN BOND
M  V30 1 1 1 19
M  V30 2 1 1 28
M  V30 3 1 2 23
M  V30 4 1 2 31
M  V30 5 1 3 27
M  V30 6 1 3 32
M  V30 7 1 4 30
M  V30 8 1 4 33
M  V30 9 1 5 12
M  V30 10 1 5 18
M  V30 11 1 5 20
M  V30 12 3 6 15
M  V30 13 1 7 8
M  V30 14 1 7 9
M  V30 15 1 7 11
M  V30 16 1 7 15
M  V30 17 1 8 13
M  V30 18 1 8 14
M  V30 19 1 8 34
M  V30 20 1 9 10
M  V30 21 1 9 35
M  V30 22 1 9 36
M  V30 23 1 10 12
M  V30 24 1 10 37
M  V30 25 1 10 38
M  V30 26 1 11 16
M  V30 27 2 11 17
M  V30 28 1 12 39
M  V30 29 1 12 40
M  V30 30 1 13 41
M  V30 31 1 13 42
M  V30 32 1 13 43
M  V30 33 1 14 44
M  V30 34 1 14 45
M  V30 35 1 14 46
M  V30 36 2 16 19
M  V30 37 1 16 47
M  V30 38 1 21 17
M  V30 39 1 17 48
M  V30 40 1 18 22
M  V30 41 1 18 49
M  V30 42 1 18 50
M  V30 43 1 19 23
M  V30 44 1 20 51
M  V30 45 1 20 52
M  V30 46 1 20 53
M  V30 47 2 23 21
M  V30 48 1 21 54
M  V30 49 1 22 24
M  V30 50 1 22 55
M  V30 51 1 22 56
M  V30 52 1 24 25
M  V30 53 2 24 26
M  V30 54 2 25 27
M  V30 55 1 25 57
M  V30 56 1 29 26
M  V30 57 1 26 58
M  V30 58 1 27 30
M  V30 59 1 28 59
M  V30 60 1 28 60
M  V30 61 1 28 61
M  V30 62 2 30 29
M  V30 63 1 29 62
M  V30 64 1 31 63
M  V30 65 1 31 64
M  V30 66 1 31 65
M  V30 67 1 32 66
M  V30 68 1 32 67
M  V30 69 1 32 68
M  V30 70 1 33 69
M  V30 71 1 33 70
M  V30 72 1 33 71
M  V30 END BOND
M  V30 END CTAB
M  END
