
  Chem3D Core 15.012021514263D

 51 55  0  0  0  0  0  0  0  0999 V2000
   -0.6078   -4.0192   -0.1736 F   0  0  0  0  0  0  0  0  0  0  0  0
   -2.1788   -4.4543    1.2858 F   0  0  0  0  0  0  0  0  0  0  0  0
    4.7410   -3.5933    1.9808 O   0  0  0  0  0  0  0  0  0  0  0  0
    2.2506    4.7579   -0.8391 O   0  0  0  0  0  0  0  0  0  0  0  0
    2.7524   -1.8926    1.0770 N   0  0  0  0  0  0  0  0  0  0  0  0
    1.5594    2.1355   -0.3112 N   0  0  0  0  0  0  0  0  0  0  0  0
   -1.5415   -1.0544    0.1780 N   0  0  0  0  0  0  0  0  0  0  0  0
    2.1031    0.1043    0.3821 N   0  0  0  0  0  0  0  0  0  0  0  0
    0.0353    0.5199   -0.0670 N   0  0  0  0  0  0  0  0  0  0  0  0
    0.6141   -1.4423    0.5957 N   0  0  0  0  0  0  0  0  0  0  0  0
   -3.2392   -2.3414    0.2942 N   0  0  0  0  0  0  0  0  0  0  0  0
    2.3968   -3.2713    1.4805 C   0  0  0  0  0  0  0  0  0  0  0  0
    4.1362   -1.3782    1.2248 C   0  0  0  0  0  0  0  0  0  0  0  0
    2.9693    2.5604   -0.1352 C   0  0  0  0  0  0  0  0  0  0  0  0
    0.5025    3.0875   -0.7209 C   0  0  0  0  0  0  0  0  0  0  0  0
    1.8324   -1.0963    0.6852 C   0  0  0  0  0  0  0  0  0  0  0  0
    1.2324    0.9372   -0.0098 C   0  0  0  0  0  0  0  0  0  0  0  0
    3.6034   -4.2064    1.4307 C   0  0  0  0  0  0  0  0  0  0  0  0
    5.1622   -2.5092    1.1930 C   0  0  0  0  0  0  0  0  0  0  0  0
    3.2853    3.8140   -0.9478 C   0  0  0  0  0  0  0  0  0  0  0  0
    1.0776    4.2956   -1.4583 C   0  0  0  0  0  0  0  0  0  0  0  0
   -0.3196   -0.6616    0.2322 C   0  0  0  0  0  0  0  0  0  0  0  0
   -2.5854   -0.3822   -0.1434 C   0  0  0  0  0  0  0  0  0  0  0  0
   -1.9859   -2.2315    0.4393 C   0  0  0  0  0  0  0  0  0  0  0  0
   -3.6422   -1.2062   -0.0667 C   0  0  0  0  0  0  0  0  0  0  0  0
   -2.8292    0.8886   -0.5090 C   0  0  0  0  0  0  0  0  0  0  0  0
   -1.2942   -3.5178    0.8757 C   0  0  0  0  0  0  0  0  0  0  0  0
   -4.9001   -0.8376   -0.3381 C   0  0  0  0  0  0  0  0  0  0  0  0
   -4.0833    1.2866   -0.7877 C   0  0  0  0  0  0  0  0  0  0  0  0
   -5.1171    0.4337   -0.7064 C   0  0  0  0  0  0  0  0  0  0  0  0
    1.6217   -3.7197    0.8190 H   0  0  0  0  0  0  0  0  0  0  0  0
    2.0007   -3.2372    2.5237 H   0  0  0  0  0  0  0  0  0  0  0  0
    4.4248   -0.6595    0.4219 H   0  0  0  0  0  0  0  0  0  0  0  0
    4.2048   -0.8527    2.2077 H   0  0  0  0  0  0  0  0  0  0  0  0
    3.7008    1.7779   -0.4472 H   0  0  0  0  0  0  0  0  0  0  0  0
    3.1302    2.7805    0.9478 H   0  0  0  0  0  0  0  0  0  0  0  0
   -0.2369    2.6196   -1.4118 H   0  0  0  0  0  0  0  0  0  0  0  0
   -0.0295    3.4361    0.1968 H   0  0  0  0  0  0  0  0  0  0  0  0
    3.8261   -4.5253    0.3863 H   0  0  0  0  0  0  0  0  0  0  0  0
    3.3988   -5.1328    2.0166 H   0  0  0  0  0  0  0  0  0  0  0  0
    6.1398   -2.1554    1.5961 H   0  0  0  0  0  0  0  0  0  0  0  0
    5.3471   -2.8592    0.1513 H   0  0  0  0  0  0  0  0  0  0  0  0
    3.4512    3.5693   -2.0222 H   0  0  0  0  0  0  0  0  0  0  0  0
    4.2217    4.2908   -0.5748 H   0  0  0  0  0  0  0  0  0  0  0  0
    0.3412    5.1328   -1.4621 H   0  0  0  0  0  0  0  0  0  0  0  0
    1.2969    4.0531   -2.5237 H   0  0  0  0  0  0  0  0  0  0  0  0
   -2.0470    1.6517   -0.5917 H   0  0  0  0  0  0  0  0  0  0  0  0
   -0.6369   -3.3234    1.7272 H   0  0  0  0  0  0  0  0  0  0  0  0
   -5.7316   -1.5562   -0.2597 H   0  0  0  0  0  0  0  0  0  0  0  0
   -4.2706    2.3328   -1.0856 H   0  0  0  0  0  0  0  0  0  0  0  0
   -6.1398    0.7758   -0.9366 H   0  0  0  0  0  0  0  0  0  0  0  0
  1 27  1  0      
  2 27  1  0      
 18  3  1  0      
  3 19  1  0      
 20  4  1  0      
  4 21  1  0      
  5 12  1  0      
  5 13  1  0      
  5 16  1  0      
  6 14  1  0      
  6 15  1  0      
  6 17  1  0      
  7 22  1  0      
  7 23  1  0      
  7 24  1  0      
 16  8  1  0      
  8 17  2  0      
 17  9  1  0      
  9 22  2  0      
 16 10  2  0      
 22 10  1  0      
 24 11  2  0      
 11 25  1  0      
 12 18  1  0      
 12 31  1  0      
 12 32  1  0      
 19 13  1  0      
 13 33  1  0      
 13 34  1  0      
 14 20  1  0      
 14 35  1  0      
 14 36  1  0      
 21 15  1  0      
 15 37  1  0      
 15 38  1  0      
 18 39  1  0      
 18 40  1  0      
 19 41  1  0      
 19 42  1  0      
 20 43  1  0      
 20 44  1  0      
 21 45  1  0      
 21 46  1  0      
 25 23  1  0      
 26 23  2  0      
 24 27  1  0      
 25 28  2  0      
 29 26  1  0      
 26 47  1  0      
 27 48  1  0      
 28 30  1  0      
 28 49  1  0      
 30 29  2  0      
 29 50  1  0      
 30 51  1  0      
M  END
